
---------- Begin Simulation Statistics ----------
sim_seconds                                  0.001292                       # Number of seconds simulated
sim_ticks                                  1291752000                       # Number of ticks simulated
final_tick                                 1291752000                       # Number of ticks from beginning of simulation (restored from checkpoints and never reset)
sim_freq                                 1000000000000                       # Frequency of simulated ticks
host_inst_rate                                  88702                       # Simulator instruction rate (inst/s)
host_op_rate                                   168326                       # Simulator op (including micro ops) rate (op/s)
host_tick_rate                              110693821                       # Simulator tick rate (ticks/s)
host_mem_usage                                 707924                       # Number of bytes of host memory used
host_seconds                                    11.67                       # Real time elapsed on the host
sim_insts                                     1035109                       # Number of instructions simulated
sim_ops                                       1964291                       # Number of ops (including micro ops) simulated
system.clk_domain.voltage_domain.voltage            1                       # Voltage in Volts
system.clk_domain.clock                           500                       # Clock period in ticks
system.mem_ctrl.pwrStateResidencyTicks::UNDEFINED   1291752000                       # Cumulative time (in ticks) in various power states
system.mem_ctrl.bytes_read::.cpu.inst          114880                       # Number of bytes read from this memory
system.mem_ctrl.bytes_read::.cpu.data           35456                       # Number of bytes read from this memory
system.mem_ctrl.bytes_read::total              150336                       # Number of bytes read from this memory
system.mem_ctrl.bytes_inst_read::.cpu.inst       114880                       # Number of instructions bytes read from this memory
system.mem_ctrl.bytes_inst_read::total         114880                       # Number of instructions bytes read from this memory
system.mem_ctrl.num_reads::.cpu.inst             1795                       # Number of read requests responded to by this memory
system.mem_ctrl.num_reads::.cpu.data              554                       # Number of read requests responded to by this memory
system.mem_ctrl.num_reads::total                 2349                       # Number of read requests responded to by this memory
system.mem_ctrl.bw_read::.cpu.inst           88933479                       # Total read bandwidth from this memory (bytes/s)
system.mem_ctrl.bw_read::.cpu.data           27447993                       # Total read bandwidth from this memory (bytes/s)
system.mem_ctrl.bw_read::total              116381473                       # Total read bandwidth from this memory (bytes/s)
system.mem_ctrl.bw_inst_read::.cpu.inst      88933479                       # Instruction read bandwidth from this memory (bytes/s)
system.mem_ctrl.bw_inst_read::total          88933479                       # Instruction read bandwidth from this memory (bytes/s)
system.mem_ctrl.bw_total::.cpu.inst          88933479                       # Total bandwidth to/from this memory (bytes/s)
system.mem_ctrl.bw_total::.cpu.data          27447993                       # Total bandwidth to/from this memory (bytes/s)
system.mem_ctrl.bw_total::total             116381473                       # Total bandwidth to/from this memory (bytes/s)
system.mem_ctrl.avgPriority_.cpu.inst::samples      1795.00                       # Average QoS priority value for accepted requests
system.mem_ctrl.avgPriority_.cpu.data::samples       554.00                       # Average QoS priority value for accepted requests
system.mem_ctrl.priorityMinLatency       0.000000018750                       # per QoS priority minimum request to response latency (s)
system.mem_ctrl.priorityMaxLatency       0.000001099750                       # per QoS priority maximum request to response latency (s)
system.mem_ctrl.numReadWriteTurnArounds             0                       # Number of turnarounds from READ to WRITE
system.mem_ctrl.numWriteReadTurnArounds             0                       # Number of turnarounds from WRITE to READ
system.mem_ctrl.numStayReadState                 4817                       # Number of times bus staying in READ state
system.mem_ctrl.numStayWriteState                   0                       # Number of times bus staying in WRITE state
system.mem_ctrl.readReqs                         2349                       # Number of read requests accepted
system.mem_ctrl.writeReqs                           0                       # Number of write requests accepted
system.mem_ctrl.readBursts                       2349                       # Number of DRAM read bursts, including those serviced by the write queue
system.mem_ctrl.writeBursts                         0                       # Number of DRAM write bursts, including those merged in the write queue
system.mem_ctrl.bytesReadDRAM                  150336                       # Total number of bytes read from DRAM
system.mem_ctrl.bytesReadWrQ                        0                       # Total number of bytes read from write queue
system.mem_ctrl.bytesWritten                        0                       # Total number of bytes written to DRAM
system.mem_ctrl.bytesReadSys                   150336                       # Total read bytes from the system interface side
system.mem_ctrl.bytesWrittenSys                     0                       # Total written bytes from the system interface side
system.mem_ctrl.servicedByWrQ                       0                       # Number of DRAM read bursts serviced by the write queue
system.mem_ctrl.mergedWrBursts                      0                       # Number of DRAM write bursts merged with an existing one
system.mem_ctrl.neitherReadNorWriteReqs             0                       # Number of requests that are neither read nor write
system.mem_ctrl.perBankRdBursts::0                 67                       # Per bank write bursts
system.mem_ctrl.perBankRdBursts::1                233                       # Per bank write bursts
system.mem_ctrl.perBankRdBursts::2                258                       # Per bank write bursts
system.mem_ctrl.perBankRdBursts::3                272                       # Per bank write bursts
system.mem_ctrl.perBankRdBursts::4                186                       # Per bank write bursts
system.mem_ctrl.perBankRdBursts::5                165                       # Per bank write bursts
system.mem_ctrl.perBankRdBursts::6                120                       # Per bank write bursts
system.mem_ctrl.perBankRdBursts::7                161                       # Per bank write bursts
system.mem_ctrl.perBankRdBursts::8                150                       # Per bank write bursts
system.mem_ctrl.perBankRdBursts::9                112                       # Per bank write bursts
system.mem_ctrl.perBankRdBursts::10               135                       # Per bank write bursts
system.mem_ctrl.perBankRdBursts::11                93                       # Per bank write bursts
system.mem_ctrl.perBankRdBursts::12               158                       # Per bank write bursts
system.mem_ctrl.perBankRdBursts::13               150                       # Per bank write bursts
system.mem_ctrl.perBankRdBursts::14                20                       # Per bank write bursts
system.mem_ctrl.perBankRdBursts::15                69                       # Per bank write bursts
system.mem_ctrl.perBankWrBursts::0                  0                       # Per bank write bursts
system.mem_ctrl.perBankWrBursts::1                  0                       # Per bank write bursts
system.mem_ctrl.perBankWrBursts::2                  0                       # Per bank write bursts
system.mem_ctrl.perBankWrBursts::3                  0                       # Per bank write bursts
system.mem_ctrl.perBankWrBursts::4                  0                       # Per bank write bursts
system.mem_ctrl.perBankWrBursts::5                  0                       # Per bank write bursts
system.mem_ctrl.perBankWrBursts::6                  0                       # Per bank write bursts
system.mem_ctrl.perBankWrBursts::7                  0                       # Per bank write bursts
system.mem_ctrl.perBankWrBursts::8                  0                       # Per bank write bursts
system.mem_ctrl.perBankWrBursts::9                  0                       # Per bank write bursts
system.mem_ctrl.perBankWrBursts::10                 0                       # Per bank write bursts
system.mem_ctrl.perBankWrBursts::11                 0                       # Per bank write bursts
system.mem_ctrl.perBankWrBursts::12                 0                       # Per bank write bursts
system.mem_ctrl.perBankWrBursts::13                 0                       # Per bank write bursts
system.mem_ctrl.perBankWrBursts::14                 0                       # Per bank write bursts
system.mem_ctrl.perBankWrBursts::15                 0                       # Per bank write bursts
system.mem_ctrl.numRdRetry                          0                       # Number of times read queue was full causing retry
system.mem_ctrl.numWrRetry                          0                       # Number of times write queue was full causing retry
system.mem_ctrl.totGap                     1291659000                       # Total gap between requests
system.mem_ctrl.readPktSize::0                      0                       # Read request sizes (log2)
system.mem_ctrl.readPktSize::1                      0                       # Read request sizes (log2)
system.mem_ctrl.readPktSize::2                      0                       # Read request sizes (log2)
system.mem_ctrl.readPktSize::3                      0                       # Read request sizes (log2)
system.mem_ctrl.readPktSize::4                      0                       # Read request sizes (log2)
system.mem_ctrl.readPktSize::5                      0                       # Read request sizes (log2)
system.mem_ctrl.readPktSize::6                   2349                       # Read request sizes (log2)
system.mem_ctrl.writePktSize::0                     0                       # Write request sizes (log2)
system.mem_ctrl.writePktSize::1                     0                       # Write request sizes (log2)
system.mem_ctrl.writePktSize::2                     0                       # Write request sizes (log2)
system.mem_ctrl.writePktSize::3                     0                       # Write request sizes (log2)
system.mem_ctrl.writePktSize::4                     0                       # Write request sizes (log2)
system.mem_ctrl.writePktSize::5                     0                       # Write request sizes (log2)
system.mem_ctrl.writePktSize::6                     0                       # Write request sizes (log2)
system.mem_ctrl.rdQLenPdf::0                     1687                       # What read queue length does an incoming req see
system.mem_ctrl.rdQLenPdf::1                      548                       # What read queue length does an incoming req see
system.mem_ctrl.rdQLenPdf::2                       94                       # What read queue length does an incoming req see
system.mem_ctrl.rdQLenPdf::3                       16                       # What read queue length does an incoming req see
system.mem_ctrl.rdQLenPdf::4                        4                       # What read queue length does an incoming req see
system.mem_ctrl.rdQLenPdf::5                        0                       # What read queue length does an incoming req see
system.mem_ctrl.rdQLenPdf::6                        0                       # What read queue length does an incoming req see
system.mem_ctrl.rdQLenPdf::7                        0                       # What read queue length does an incoming req see
system.mem_ctrl.rdQLenPdf::8                        0                       # What read queue length does an incoming req see
system.mem_ctrl.rdQLenPdf::9                        0                       # What read queue length does an incoming req see
system.mem_ctrl.rdQLenPdf::10                       0                       # What read queue length does an incoming req see
system.mem_ctrl.rdQLenPdf::11                       0                       # What read queue length does an incoming req see
system.mem_ctrl.rdQLenPdf::12                       0                       # What read queue length does an incoming req see
system.mem_ctrl.rdQLenPdf::13                       0                       # What read queue length does an incoming req see
system.mem_ctrl.rdQLenPdf::14                       0                       # What read queue length does an incoming req see
system.mem_ctrl.rdQLenPdf::15                       0                       # What read queue length does an incoming req see
system.mem_ctrl.rdQLenPdf::16                       0                       # What read queue length does an incoming req see
system.mem_ctrl.rdQLenPdf::17                       0                       # What read queue length does an incoming req see
system.mem_ctrl.rdQLenPdf::18                       0                       # What read queue length does an incoming req see
system.mem_ctrl.rdQLenPdf::19                       0                       # What read queue length does an incoming req see
system.mem_ctrl.rdQLenPdf::20                       0                       # What read queue length does an incoming req see
system.mem_ctrl.rdQLenPdf::21                       0                       # What read queue length does an incoming req see
system.mem_ctrl.rdQLenPdf::22                       0                       # What read queue length does an incoming req see
system.mem_ctrl.rdQLenPdf::23                       0                       # What read queue length does an incoming req see
system.mem_ctrl.rdQLenPdf::24                       0                       # What read queue length does an incoming req see
system.mem_ctrl.rdQLenPdf::25                       0                       # What read queue length does an incoming req see
system.mem_ctrl.rdQLenPdf::26                       0                       # What read queue length does an incoming req see
system.mem_ctrl.rdQLenPdf::27                       0                       # What read queue length does an incoming req see
system.mem_ctrl.rdQLenPdf::28                       0                       # What read queue length does an incoming req see
system.mem_ctrl.rdQLenPdf::29                       0                       # What read queue length does an incoming req see
system.mem_ctrl.rdQLenPdf::30                       0                       # What read queue length does an incoming req see
system.mem_ctrl.rdQLenPdf::31                       0                       # What read queue length does an incoming req see
system.mem_ctrl.wrQLenPdf::0                        0                       # What write queue length does an incoming req see
system.mem_ctrl.wrQLenPdf::1                        0                       # What write queue length does an incoming req see
system.mem_ctrl.wrQLenPdf::2                        0                       # What write queue length does an incoming req see
system.mem_ctrl.wrQLenPdf::3                        0                       # What write queue length does an incoming req see
system.mem_ctrl.wrQLenPdf::4                        0                       # What write queue length does an incoming req see
system.mem_ctrl.wrQLenPdf::5                        0                       # What write queue length does an incoming req see
system.mem_ctrl.wrQLenPdf::6                        0                       # What write queue length does an incoming req see
system.mem_ctrl.wrQLenPdf::7                        0                       # What write queue length does an incoming req see
system.mem_ctrl.wrQLenPdf::8                        0                       # What write queue length does an incoming req see
system.mem_ctrl.wrQLenPdf::9                        0                       # What write queue length does an incoming req see
system.mem_ctrl.wrQLenPdf::10                       0                       # What write queue length does an incoming req see
system.mem_ctrl.wrQLenPdf::11                       0                       # What write queue length does an incoming req see
system.mem_ctrl.wrQLenPdf::12                       0                       # What write queue length does an incoming req see
system.mem_ctrl.wrQLenPdf::13                       0                       # What write queue length does an incoming req see
system.mem_ctrl.wrQLenPdf::14                       0                       # What write queue length does an incoming req see
system.mem_ctrl.wrQLenPdf::15                       0                       # What write queue length does an incoming req see
system.mem_ctrl.wrQLenPdf::16                       0                       # What write queue length does an incoming req see
system.mem_ctrl.wrQLenPdf::17                       0                       # What write queue length does an incoming req see
system.mem_ctrl.wrQLenPdf::18                       0                       # What write queue length does an incoming req see
system.mem_ctrl.wrQLenPdf::19                       0                       # What write queue length does an incoming req see
system.mem_ctrl.wrQLenPdf::20                       0                       # What write queue length does an incoming req see
system.mem_ctrl.wrQLenPdf::21                       0                       # What write queue length does an incoming req see
system.mem_ctrl.wrQLenPdf::22                       0                       # What write queue length does an incoming req see
system.mem_ctrl.wrQLenPdf::23                       0                       # What write queue length does an incoming req see
system.mem_ctrl.wrQLenPdf::24                       0                       # What write queue length does an incoming req see
system.mem_ctrl.wrQLenPdf::25                       0                       # What write queue length does an incoming req see
system.mem_ctrl.wrQLenPdf::26                       0                       # What write queue length does an incoming req see
system.mem_ctrl.wrQLenPdf::27                       0                       # What write queue length does an incoming req see
system.mem_ctrl.wrQLenPdf::28                       0                       # What write queue length does an incoming req see
system.mem_ctrl.wrQLenPdf::29                       0                       # What write queue length does an incoming req see
system.mem_ctrl.wrQLenPdf::30                       0                       # What write queue length does an incoming req see
system.mem_ctrl.wrQLenPdf::31                       0                       # What write queue length does an incoming req see
system.mem_ctrl.wrQLenPdf::32                       0                       # What write queue length does an incoming req see
system.mem_ctrl.wrQLenPdf::33                       0                       # What write queue length does an incoming req see
system.mem_ctrl.wrQLenPdf::34                       0                       # What write queue length does an incoming req see
system.mem_ctrl.wrQLenPdf::35                       0                       # What write queue length does an incoming req see
system.mem_ctrl.wrQLenPdf::36                       0                       # What write queue length does an incoming req see
system.mem_ctrl.wrQLenPdf::37                       0                       # What write queue length does an incoming req see
system.mem_ctrl.wrQLenPdf::38                       0                       # What write queue length does an incoming req see
system.mem_ctrl.wrQLenPdf::39                       0                       # What write queue length does an incoming req see
system.mem_ctrl.wrQLenPdf::40                       0                       # What write queue length does an incoming req see
system.mem_ctrl.wrQLenPdf::41                       0                       # What write queue length does an incoming req see
system.mem_ctrl.wrQLenPdf::42                       0                       # What write queue length does an incoming req see
system.mem_ctrl.wrQLenPdf::43                       0                       # What write queue length does an incoming req see
system.mem_ctrl.wrQLenPdf::44                       0                       # What write queue length does an incoming req see
system.mem_ctrl.wrQLenPdf::45                       0                       # What write queue length does an incoming req see
system.mem_ctrl.wrQLenPdf::46                       0                       # What write queue length does an incoming req see
system.mem_ctrl.wrQLenPdf::47                       0                       # What write queue length does an incoming req see
system.mem_ctrl.wrQLenPdf::48                       0                       # What write queue length does an incoming req see
system.mem_ctrl.wrQLenPdf::49                       0                       # What write queue length does an incoming req see
system.mem_ctrl.wrQLenPdf::50                       0                       # What write queue length does an incoming req see
system.mem_ctrl.wrQLenPdf::51                       0                       # What write queue length does an incoming req see
system.mem_ctrl.wrQLenPdf::52                       0                       # What write queue length does an incoming req see
system.mem_ctrl.wrQLenPdf::53                       0                       # What write queue length does an incoming req see
system.mem_ctrl.wrQLenPdf::54                       0                       # What write queue length does an incoming req see
system.mem_ctrl.wrQLenPdf::55                       0                       # What write queue length does an incoming req see
system.mem_ctrl.wrQLenPdf::56                       0                       # What write queue length does an incoming req see
system.mem_ctrl.wrQLenPdf::57                       0                       # What write queue length does an incoming req see
system.mem_ctrl.wrQLenPdf::58                       0                       # What write queue length does an incoming req see
system.mem_ctrl.wrQLenPdf::59                       0                       # What write queue length does an incoming req see
system.mem_ctrl.wrQLenPdf::60                       0                       # What write queue length does an incoming req see
system.mem_ctrl.wrQLenPdf::61                       0                       # What write queue length does an incoming req see
system.mem_ctrl.wrQLenPdf::62                       0                       # What write queue length does an incoming req see
system.mem_ctrl.wrQLenPdf::63                       0                       # What write queue length does an incoming req see
system.mem_ctrl.bytesPerActivate::samples          563                       # Bytes accessed per row activation
system.mem_ctrl.bytesPerActivate::mean     262.365897                       # Bytes accessed per row activation
system.mem_ctrl.bytesPerActivate::gmean    162.169654                       # Bytes accessed per row activation
system.mem_ctrl.bytesPerActivate::stdev    279.914071                       # Bytes accessed per row activation
system.mem_ctrl.bytesPerActivate::0-127           231     41.03%     41.03% # Bytes accessed per row activation
system.mem_ctrl.bytesPerActivate::128-255          137     24.33%     65.36% # Bytes accessed per row activation
system.mem_ctrl.bytesPerActivate::256-383           58     10.30%     75.67% # Bytes accessed per row activation
system.mem_ctrl.bytesPerActivate::384-511           33      5.86%     81.53% # Bytes accessed per row activation
system.mem_ctrl.bytesPerActivate::512-639           26      4.62%     86.15% # Bytes accessed per row activation
system.mem_ctrl.bytesPerActivate::640-767           24      4.26%     90.41% # Bytes accessed per row activation
system.mem_ctrl.bytesPerActivate::768-895           12      2.13%     92.54% # Bytes accessed per row activation
system.mem_ctrl.bytesPerActivate::896-1023           10      1.78%     94.32% # Bytes accessed per row activation
system.mem_ctrl.bytesPerActivate::1024-1151           32      5.68%    100.00% # Bytes accessed per row activation
system.mem_ctrl.bytesPerActivate::total           563                       # Bytes accessed per row activation
system.mem_ctrl.masterReadBytes::.cpu.inst       114880                       # Per-master bytes read from memory
system.mem_ctrl.masterReadBytes::.cpu.data        35456                       # Per-master bytes read from memory
system.mem_ctrl.masterReadRate::.cpu.inst 88933479.491419404745                       # Per-master bytes read from memory rate (Bytes/sec)
system.mem_ctrl.masterReadRate::.cpu.data 27447993.113229166716                       # Per-master bytes read from memory rate (Bytes/sec)
system.mem_ctrl.masterReadAccesses::.cpu.inst         1795                       # Per-master read serviced memory accesses
system.mem_ctrl.masterReadAccesses::.cpu.data          554                       # Per-master read serviced memory accesses
system.mem_ctrl.masterReadTotalLat::.cpu.inst     66677500                       # Per-master read total memory access latency
system.mem_ctrl.masterReadTotalLat::.cpu.data     34587750                       # Per-master read total memory access latency
system.mem_ctrl.masterReadAvgLat::.cpu.inst     37146.24                       # Per-master read average memory access latency
system.mem_ctrl.masterReadAvgLat::.cpu.data     62432.76                       # Per-master read average memory access latency
system.mem_ctrl.totQLat                      57221500                       # Total ticks spent queuing
system.mem_ctrl.totMemAccLat                101265250                       # Total ticks spent from burst creation until serviced by the DRAM
system.mem_ctrl.totBusLat                    11745000                       # Total ticks spent in databus transfers
system.mem_ctrl.avgQLat                      24359.94                       # Average queueing delay per DRAM burst
system.mem_ctrl.avgBusLat                     5000.00                       # Average bus latency per DRAM burst
system.mem_ctrl.avgMemAccLat                 43109.94                       # Average memory access latency per DRAM burst
system.mem_ctrl.avgRdBW                        116.38                       # Average DRAM read bandwidth in MiByte/s
system.mem_ctrl.avgWrBW                          0.00                       # Average achieved write bandwidth in MiByte/s
system.mem_ctrl.avgRdBWSys                     116.38                       # Average system read bandwidth in MiByte/s
system.mem_ctrl.avgWrBWSys                       0.00                       # Average system write bandwidth in MiByte/s
system.mem_ctrl.peakBW                       12800.00                       # Theoretical peak bandwidth in MiByte/s
system.mem_ctrl.busUtil                          0.91                       # Data bus utilization in percentage
system.mem_ctrl.busUtilRead                      0.91                       # Data bus utilization in percentage for reads
system.mem_ctrl.busUtilWrite                     0.00                       # Data bus utilization in percentage for writes
system.mem_ctrl.avgRdQLen                        1.11                       # Average read queue length when enqueuing
system.mem_ctrl.avgWrQLen                        0.00                       # Average write queue length when enqueuing
system.mem_ctrl.readRowHits                      1777                       # Number of row buffer hits during reads
system.mem_ctrl.writeRowHits                        0                       # Number of row buffer hits during writes
system.mem_ctrl.readRowHitRate                  75.65                       # Row buffer hit rate for reads
system.mem_ctrl.writeRowHitRate                   nan                       # Row buffer hit rate for writes
system.mem_ctrl.avgGap                      549876.12                       # Average gap between requests
system.mem_ctrl.pageHitRate                     75.65                       # Row buffer hit rate, read and write combined
system.mem_ctrl_0.actEnergy                   2377620                       # Energy for activate commands per rank (pJ)
system.mem_ctrl_0.preEnergy                   1240965                       # Energy for precharge commands per rank (pJ)
system.mem_ctrl_0.readEnergy                 10438680                       # Energy for read commands per rank (pJ)
system.mem_ctrl_0.writeEnergy                       0                       # Energy for write commands per rank (pJ)
system.mem_ctrl_0.refreshEnergy          34419840.000000                       # Energy for refresh commands per rank (pJ)
system.mem_ctrl_0.actBackEnergy              23553540                       # Energy for active background per rank (pJ)
system.mem_ctrl_0.preBackEnergy               1823040                       # Energy for precharge background per rank (pJ)
system.mem_ctrl_0.actPowerDownEnergy        130255260                       # Energy for active power-down per rank (pJ)
system.mem_ctrl_0.prePowerDownEnergy         40145280                       # Energy for precharge power-down per rank (pJ)
system.mem_ctrl_0.selfRefreshEnergy         208913040                       # Energy for self refresh per rank (pJ)
system.mem_ctrl_0.totalEnergy               453167265                       # Total energy per rank (pJ)
system.mem_ctrl_0.averagePower             350.815996                       # Core power per rank (mW)
system.mem_ctrl_0.totalIdleTime            1235088250                       # Total Idle time Per DRAM Rank
system.mem_ctrl_0.memoryStateTime::IDLE       3300500                       # Time in different power states
system.mem_ctrl_0.memoryStateTime::REF       14560000                       # Time in different power states
system.mem_ctrl_0.memoryStateTime::SREF     845159750                       # Time in different power states
system.mem_ctrl_0.memoryStateTime::PRE_PDN    104540750                       # Time in different power states
system.mem_ctrl_0.memoryStateTime::ACT       38536500                       # Time in different power states
system.mem_ctrl_0.memoryStateTime::ACT_PDN    285654500                       # Time in different power states
system.mem_ctrl_1.actEnergy                   1706460                       # Energy for activate commands per rank (pJ)
system.mem_ctrl_1.preEnergy                    895620                       # Energy for precharge commands per rank (pJ)
system.mem_ctrl_1.readEnergy                  6333180                       # Energy for read commands per rank (pJ)
system.mem_ctrl_1.writeEnergy                       0                       # Energy for write commands per rank (pJ)
system.mem_ctrl_1.refreshEnergy          71298240.000000                       # Energy for refresh commands per rank (pJ)
system.mem_ctrl_1.actBackEnergy              24233550                       # Energy for active background per rank (pJ)
system.mem_ctrl_1.preBackEnergy               4934400                       # Energy for precharge background per rank (pJ)
system.mem_ctrl_1.actPowerDownEnergy        227111940                       # Energy for active power-down per rank (pJ)
system.mem_ctrl_1.prePowerDownEnergy        135488160                       # Energy for precharge power-down per rank (pJ)
system.mem_ctrl_1.selfRefreshEnergy         108193320                       # Energy for self refresh per rank (pJ)
system.mem_ctrl_1.totalEnergy               580199670                       # Total energy per rank (pJ)
system.mem_ctrl_1.averagePower             449.157168                       # Core power per rank (mW)
system.mem_ctrl_1.totalIdleTime            1225717500                       # Total Idle time Per DRAM Rank
system.mem_ctrl_1.memoryStateTime::IDLE      10037000                       # Time in different power states
system.mem_ctrl_1.memoryStateTime::REF       30160000                       # Time in different power states
system.mem_ctrl_1.memoryStateTime::SREF     374866250                       # Time in different power states
system.mem_ctrl_1.memoryStateTime::PRE_PDN    352837750                       # Time in different power states
system.mem_ctrl_1.memoryStateTime::ACT       25787750                       # Time in different power states
system.mem_ctrl_1.memoryStateTime::ACT_PDN    498063250                       # Time in different power states
system.pwrStateResidencyTicks::UNDEFINED   1291752000                       # Cumulative time (in ticks) in various power states
system.cpu.branchPred.lookups                  381095                       # Number of BP lookups
system.cpu.branchPred.condPredicted            381095                       # Number of conditional branches predicted
system.cpu.branchPred.condIncorrect             56809                       # Number of conditional branches incorrect
system.cpu.branchPred.BTBLookups               199974                       # Number of BTB lookups
system.cpu.branchPred.BTBHits                       0                       # Number of BTB hits
system.cpu.branchPred.BTBCorrect                    0                       # Number of correct BTB predictions (this stat may not work properly.
system.cpu.branchPred.BTBHitPct              0.000000                       # BTB Hit Percentage
system.cpu.branchPred.usedRAS                  149103                       # Number of times the RAS was used to get a target.
system.cpu.branchPred.RASInCorrect              25303                       # Number of incorrect RAS predictions.
system.cpu.branchPred.indirectLookups          199974                       # Number of indirect predictor lookups.
system.cpu.branchPred.indirectHits              73835                       # Number of indirect target hits.
system.cpu.branchPred.indirectMisses           126139                       # Number of indirect misses.
system.cpu.branchPredindirectMispredicted        27282                       # Number of mispredicted indirect branches.
system.cpu.dtb.walker.pwrStateResidencyTicks::UNDEFINED   1291752000                       # Cumulative time (in ticks) in various power states
system.cpu.dtb.rdAccesses                      394617                       # TLB accesses on read requests
system.cpu.dtb.wrAccesses                      301973                       # TLB accesses on write requests
system.cpu.dtb.rdMisses                          2099                       # TLB misses on read requests
system.cpu.dtb.wrMisses                           369                       # TLB misses on write requests
system.cpu.apic_clk_domain.clock                 8000                       # Clock period in ticks
system.cpu.interrupts.pwrStateResidencyTicks::UNDEFINED   1291752000                       # Cumulative time (in ticks) in various power states
system.cpu.itb.walker.pwrStateResidencyTicks::UNDEFINED   1291752000                       # Cumulative time (in ticks) in various power states
system.cpu.itb.rdAccesses                           0                       # TLB accesses on read requests
system.cpu.itb.wrAccesses                      346139                       # TLB accesses on write requests
system.cpu.itb.rdMisses                             0                       # TLB misses on read requests
system.cpu.itb.wrMisses                           326                       # TLB misses on write requests
system.cpu.workload.numSyscalls                    16                       # Number of system calls
system.cpu.pwrStateResidencyTicks::ON      1291752000                       # Cumulative time (in ticks) in various power states
system.cpu.numCycles                          2583505                       # number of cpu cycles simulated
system.cpu.numWorkItemsStarted                      0                       # number of work items this cpu started
system.cpu.numWorkItemsCompleted                    0                       # number of work items this cpu completed
system.cpu.fetch.icacheStallCycles             193356                       # Number of cycles fetch is stalled on an Icache miss
system.cpu.fetch.Insts                        1923667                       # Number of instructions fetch has processed
system.cpu.fetch.Branches                      381095                       # Number of branches that fetch encountered
system.cpu.fetch.predictedBranches             222938                       # Number of branches that fetch has predicted taken
system.cpu.fetch.Cycles                       2246439                       # Number of cycles fetch has run and was not squashing or blocked
system.cpu.fetch.SquashCycles                  114846                       # Number of cycles fetch has spent squashing
system.cpu.fetch.MiscStallCycles                  176                       # Number of cycles fetch has spent waiting on interrupts, or bad addresses, or out of MSHRs
system.cpu.fetch.PendingTrapStallCycles          2020                       # Number of stall cycles due to pending traps
system.cpu.fetch.PendingQuiesceStallCycles           24                       # Number of stall cycles due to pending quiesce instructions
system.cpu.fetch.IcacheWaitRetryStallCycles          113                       # Number of stall cycles due to full MSHR
system.cpu.fetch.CacheLines                    345933                       # Number of cache lines fetched
system.cpu.fetch.IcacheSquashes                  2133                       # Number of outstanding Icache misses that were squashed
system.cpu.fetch.rateDist::samples            2499551                       # Number of instructions fetched each cycle (Total)
system.cpu.fetch.rateDist::mean              1.533197                       # Number of instructions fetched each cycle (Total)
system.cpu.fetch.rateDist::stdev             0.797583                       # Number of instructions fetched each cycle (Total)
system.cpu.fetch.rateDist::underflows               0      0.00%      0.00% # Number of instructions fetched each cycle (Total)
system.cpu.fetch.rateDist::0                   483964     19.36%     19.36% # Number of instructions fetched each cycle (Total)
system.cpu.fetch.rateDist::1                   198870      7.96%     27.32% # Number of instructions fetched each cycle (Total)
system.cpu.fetch.rateDist::2                  1816717     72.68%    100.00% # Number of instructions fetched each cycle (Total)
system.cpu.fetch.rateDist::overflows                0      0.00%    100.00% # Number of instructions fetched each cycle (Total)
system.cpu.fetch.rateDist::min_value                0                       # Number of instructions fetched each cycle (Total)
system.cpu.fetch.rateDist::max_value                2                       # Number of instructions fetched each cycle (Total)
system.cpu.fetch.rateDist::total              2499551                       # Number of instructions fetched each cycle (Total)
system.cpu.fetch.branchRate                  0.147511                       # Number of branch fetches per cycle
system.cpu.fetch.rate                        0.744596                       # Number of inst fetches per cycle
system.cpu.decode.IdleCycles                   349022                       # Number of cycles decode is idle
system.cpu.decode.BlockedCycles                241744                       # Number of cycles decode is blocked
system.cpu.decode.RunCycles                   1733402                       # Number of cycles decode is running
system.cpu.decode.UnblockCycles                117960                       # Number of cycles decode is unblocking
system.cpu.decode.SquashCycles                  57423                       # Number of cycles decode is squashing
system.cpu.decode.DecodedInsts                3404280                       # Number of instructions handled by decode
system.cpu.decode.SquashedInsts                200244                       # Number of squashed instructions handled by decode
system.cpu.rename.SquashCycles                  57423                       # Number of cycles rename is squashing
system.cpu.rename.IdleCycles                   567383                       # Number of cycles rename is idle
system.cpu.rename.BlockCycles                   54425                       # Number of cycles rename is blocking
system.cpu.rename.serializeStallCycles           1544                       # count of cycles rename stalled for serializing inst
system.cpu.rename.RunCycles                   1629263                       # Number of cycles rename is running
system.cpu.rename.UnblockCycles                189513                       # Number of cycles rename is unblocking
system.cpu.rename.RenamedInsts                3198733                       # Number of instructions processed by rename
system.cpu.rename.SquashedInsts                100704                       # Number of squashed instructions processed by rename
system.cpu.rename.ROBFullEvents                    41                       # Number of times rename has blocked due to ROB full
system.cpu.rename.IQFullEvents                  74197                       # Number of times rename has blocked due to IQ full
system.cpu.rename.SQFullEvents                  64681                       # Number of times rename has blocked due to SQ full
system.cpu.rename.FullRegisterEvents              611                       # Number of times there has been no free registers
system.cpu.rename.RenamedOperands             2902669                       # Number of destination operands rename has renamed
system.cpu.rename.RenameLookups               7588837                       # Number of register rename lookups that rename has made
system.cpu.rename.int_rename_lookups          5599822                       # Number of integer rename lookups
system.cpu.rename.fp_rename_lookups              4452                       # Number of floating rename lookups
system.cpu.rename.CommittedMaps               1750547                       # Number of HB maps that are committed
system.cpu.rename.UndoneMaps                  1152122                       # Number of HB maps that are undone due to squashing
system.cpu.rename.serializingInsts                 31                       # count of serializing insts renamed
system.cpu.rename.tempSerializingInsts             28                       # count of temporary serializing insts renamed
system.cpu.rename.skidInsts                    169461                       # count of insts added to the skid buffer
system.cpu.memDep0.insertedLoads               557392                       # Number of loads inserted to the mem dependence unit.
system.cpu.memDep0.insertedStores              358929                       # Number of stores inserted to the mem dependence unit.
system.cpu.memDep0.conflictingLoads             45323                       # Number of conflicting loads.
system.cpu.memDep0.conflictingStores            16405                       # Number of conflicting stores.
system.cpu.iq.iqInstsAdded                    2995847                       # Number of instructions added to the IQ (excludes non-spec)
system.cpu.iq.iqNonSpecInstsAdded                 747                       # Number of non-speculative instructions added to the IQ
system.cpu.iq.iqInstsIssued                   2324359                       # Number of instructions issued
system.cpu.iq.iqSquashedInstsIssued            120168                       # Number of squashed instructions issued
system.cpu.iq.iqSquashedInstsExamined         1032302                       # Number of squashed instructions iterated over during squash; mainly for profiling
system.cpu.iq.iqSquashedOperandsExamined      1801150                       # Number of squashed operands that are examined and possibly removed from graph
system.cpu.iq.iqSquashedNonSpecRemoved            731                       # Number of squashed non-spec instructions that were removed
system.cpu.iq.issued_per_cycle::samples       2499551                       # Number of insts issued each cycle
system.cpu.iq.issued_per_cycle::mean         0.929911                       # Number of insts issued each cycle
system.cpu.iq.issued_per_cycle::stdev        0.765627                       # Number of insts issued each cycle
system.cpu.iq.issued_per_cycle::underflows            0      0.00%      0.00% # Number of insts issued each cycle
system.cpu.iq.issued_per_cycle::0              826335     33.06%     33.06% # Number of insts issued each cycle
system.cpu.iq.issued_per_cycle::1             1022073     40.89%     73.95% # Number of insts issued each cycle
system.cpu.iq.issued_per_cycle::2              651143     26.05%    100.00% # Number of insts issued each cycle
system.cpu.iq.issued_per_cycle::overflows            0      0.00%    100.00% # Number of insts issued each cycle
system.cpu.iq.issued_per_cycle::min_value            0                       # Number of insts issued each cycle
system.cpu.iq.issued_per_cycle::max_value            2                       # Number of insts issued each cycle
system.cpu.iq.issued_per_cycle::total         2499551                       # Number of insts issued each cycle
system.cpu.iq.fu_full::No_OpClass                   0      0.00%      0.00% # attempts to use FU when none available
system.cpu.iq.fu_full::IntAlu                  711211     79.19%     79.19% # attempts to use FU when none available
system.cpu.iq.fu_full::IntMult                      0      0.00%     79.19% # attempts to use FU when none available
system.cpu.iq.fu_full::IntDiv                       0      0.00%     79.19% # attempts to use FU when none available
system.cpu.iq.fu_full::FloatAdd                     0      0.00%     79.19% # attempts to use FU when none available
system.cpu.iq.fu_full::FloatCmp                     0      0.00%     79.19% # attempts to use FU when none available
system.cpu.iq.fu_full::FloatCvt                     0      0.00%     79.19% # attempts to use FU when none available
system.cpu.iq.fu_full::FloatMult                    0      0.00%     79.19% # attempts to use FU when none available
system.cpu.iq.fu_full::FloatMultAcc                 0      0.00%     79.19% # attempts to use FU when none available
system.cpu.iq.fu_full::FloatDiv                     0      0.00%     79.19% # attempts to use FU when none available
system.cpu.iq.fu_full::FloatMisc                    0      0.00%     79.19% # attempts to use FU when none available
system.cpu.iq.fu_full::FloatSqrt                    0      0.00%     79.19% # attempts to use FU when none available
system.cpu.iq.fu_full::SimdAdd                      0      0.00%     79.19% # attempts to use FU when none available
system.cpu.iq.fu_full::SimdAddAcc                   0      0.00%     79.19% # attempts to use FU when none available
system.cpu.iq.fu_full::SimdAlu                    220      0.02%     79.21% # attempts to use FU when none available
system.cpu.iq.fu_full::SimdCmp                      0      0.00%     79.21% # attempts to use FU when none available
system.cpu.iq.fu_full::SimdCvt                     18      0.00%     79.21% # attempts to use FU when none available
system.cpu.iq.fu_full::SimdMisc                    22      0.00%     79.22% # attempts to use FU when none available
system.cpu.iq.fu_full::SimdMult                     0      0.00%     79.22% # attempts to use FU when none available
system.cpu.iq.fu_full::SimdMultAcc                  0      0.00%     79.22% # attempts to use FU when none available
system.cpu.iq.fu_full::SimdShift                    0      0.00%     79.22% # attempts to use FU when none available
system.cpu.iq.fu_full::SimdShiftAcc                 0      0.00%     79.22% # attempts to use FU when none available
system.cpu.iq.fu_full::SimdSqrt                     0      0.00%     79.22% # attempts to use FU when none available
system.cpu.iq.fu_full::SimdFloatAdd                 0      0.00%     79.22% # attempts to use FU when none available
system.cpu.iq.fu_full::SimdFloatAlu                 0      0.00%     79.22% # attempts to use FU when none available
system.cpu.iq.fu_full::SimdFloatCmp                 0      0.00%     79.22% # attempts to use FU when none available
system.cpu.iq.fu_full::SimdFloatCvt                 0      0.00%     79.22% # attempts to use FU when none available
system.cpu.iq.fu_full::SimdFloatDiv                 0      0.00%     79.22% # attempts to use FU when none available
system.cpu.iq.fu_full::SimdFloatMisc                0      0.00%     79.22% # attempts to use FU when none available
system.cpu.iq.fu_full::SimdFloatMult                0      0.00%     79.22% # attempts to use FU when none available
system.cpu.iq.fu_full::SimdFloatMultAcc             0      0.00%     79.22% # attempts to use FU when none available
system.cpu.iq.fu_full::SimdFloatSqrt                0      0.00%     79.22% # attempts to use FU when none available
system.cpu.iq.fu_full::SimdAes                      0      0.00%     79.22% # attempts to use FU when none available
system.cpu.iq.fu_full::SimdAesMix                   0      0.00%     79.22% # attempts to use FU when none available
system.cpu.iq.fu_full::SimdSha1Hash                 0      0.00%     79.22% # attempts to use FU when none available
system.cpu.iq.fu_full::SimdSha1Hash2                0      0.00%     79.22% # attempts to use FU when none available
system.cpu.iq.fu_full::SimdSha256Hash               0      0.00%     79.22% # attempts to use FU when none available
system.cpu.iq.fu_full::SimdSha256Hash2              0      0.00%     79.22% # attempts to use FU when none available
system.cpu.iq.fu_full::SimdShaSigma2                0      0.00%     79.22% # attempts to use FU when none available
system.cpu.iq.fu_full::SimdShaSigma3                0      0.00%     79.22% # attempts to use FU when none available
system.cpu.iq.fu_full::MemRead                 134333     14.96%     94.17% # attempts to use FU when none available
system.cpu.iq.fu_full::MemWrite                 52322      5.83%    100.00% # attempts to use FU when none available
system.cpu.iq.fu_full::FloatMemRead                 0      0.00%    100.00% # attempts to use FU when none available
system.cpu.iq.fu_full::FloatMemWrite                0      0.00%    100.00% # attempts to use FU when none available
system.cpu.iq.fu_full::IprAccess                    0      0.00%    100.00% # attempts to use FU when none available
system.cpu.iq.fu_full::InstPrefetch                 0      0.00%    100.00% # attempts to use FU when none available
system.cpu.iq.FU_type_0::No_OpClass             10619      0.46%      0.46% # Type of FU issued
system.cpu.iq.FU_type_0::IntAlu               1574915     67.76%     68.21% # Type of FU issued
system.cpu.iq.FU_type_0::IntMult                 1549      0.07%     68.28% # Type of FU issued
system.cpu.iq.FU_type_0::IntDiv                    57      0.00%     68.28% # Type of FU issued
system.cpu.iq.FU_type_0::FloatAdd                   2      0.00%     68.28% # Type of FU issued
system.cpu.iq.FU_type_0::FloatCmp                   0      0.00%     68.28% # Type of FU issued
system.cpu.iq.FU_type_0::FloatCvt                   0      0.00%     68.28% # Type of FU issued
system.cpu.iq.FU_type_0::FloatMult                  0      0.00%     68.28% # Type of FU issued
system.cpu.iq.FU_type_0::FloatMultAcc               0      0.00%     68.28% # Type of FU issued
system.cpu.iq.FU_type_0::FloatDiv                   0      0.00%     68.28% # Type of FU issued
system.cpu.iq.FU_type_0::FloatMisc                  0      0.00%     68.28% # Type of FU issued
system.cpu.iq.FU_type_0::FloatSqrt                  0      0.00%     68.28% # Type of FU issued
system.cpu.iq.FU_type_0::SimdAdd                   16      0.00%     68.28% # Type of FU issued
system.cpu.iq.FU_type_0::SimdAddAcc                 0      0.00%     68.28% # Type of FU issued
system.cpu.iq.FU_type_0::SimdAlu                  841      0.04%     68.32% # Type of FU issued
system.cpu.iq.FU_type_0::SimdCmp                    0      0.00%     68.32% # Type of FU issued
system.cpu.iq.FU_type_0::SimdCvt                  294      0.01%     68.33% # Type of FU issued
system.cpu.iq.FU_type_0::SimdMisc                 287      0.01%     68.34% # Type of FU issued
system.cpu.iq.FU_type_0::SimdMult                   0      0.00%     68.34% # Type of FU issued
system.cpu.iq.FU_type_0::SimdMultAcc                0      0.00%     68.34% # Type of FU issued
system.cpu.iq.FU_type_0::SimdShift                  0      0.00%     68.34% # Type of FU issued
system.cpu.iq.FU_type_0::SimdShiftAcc               0      0.00%     68.34% # Type of FU issued
system.cpu.iq.FU_type_0::SimdSqrt                   0      0.00%     68.34% # Type of FU issued
system.cpu.iq.FU_type_0::SimdFloatAdd               0      0.00%     68.34% # Type of FU issued
system.cpu.iq.FU_type_0::SimdFloatAlu               0      0.00%     68.34% # Type of FU issued
system.cpu.iq.FU_type_0::SimdFloatCmp               0      0.00%     68.34% # Type of FU issued
system.cpu.iq.FU_type_0::SimdFloatCvt               0      0.00%     68.34% # Type of FU issued
system.cpu.iq.FU_type_0::SimdFloatDiv               0      0.00%     68.34% # Type of FU issued
system.cpu.iq.FU_type_0::SimdFloatMisc              0      0.00%     68.34% # Type of FU issued
system.cpu.iq.FU_type_0::SimdFloatMult              0      0.00%     68.34% # Type of FU issued
system.cpu.iq.FU_type_0::SimdFloatMultAcc            0      0.00%     68.34% # Type of FU issued
system.cpu.iq.FU_type_0::SimdFloatSqrt              0      0.00%     68.34% # Type of FU issued
system.cpu.iq.FU_type_0::SimdAes                    0      0.00%     68.34% # Type of FU issued
system.cpu.iq.FU_type_0::SimdAesMix                 0      0.00%     68.34% # Type of FU issued
system.cpu.iq.FU_type_0::SimdSha1Hash               0      0.00%     68.34% # Type of FU issued
system.cpu.iq.FU_type_0::SimdSha1Hash2              0      0.00%     68.34% # Type of FU issued
system.cpu.iq.FU_type_0::SimdSha256Hash             0      0.00%     68.34% # Type of FU issued
system.cpu.iq.FU_type_0::SimdSha256Hash2            0      0.00%     68.34% # Type of FU issued
system.cpu.iq.FU_type_0::SimdShaSigma2              0      0.00%     68.34% # Type of FU issued
system.cpu.iq.FU_type_0::SimdShaSigma3              0      0.00%     68.34% # Type of FU issued
system.cpu.iq.FU_type_0::MemRead               426121     18.33%     86.68% # Type of FU issued
system.cpu.iq.FU_type_0::MemWrite              307869     13.25%     99.92% # Type of FU issued
system.cpu.iq.FU_type_0::FloatMemRead            1185      0.05%     99.97% # Type of FU issued
system.cpu.iq.FU_type_0::FloatMemWrite            604      0.03%    100.00% # Type of FU issued
system.cpu.iq.FU_type_0::IprAccess                  0      0.00%    100.00% # Type of FU issued
system.cpu.iq.FU_type_0::InstPrefetch               0      0.00%    100.00% # Type of FU issued
system.cpu.iq.FU_type_0::total                2324359                       # Type of FU issued
system.cpu.iq.rate                           0.899692                       # Inst issue rate
system.cpu.iq.fu_busy_cnt                      898126                       # FU busy when requested
system.cpu.iq.fu_busy_rate                   0.386397                       # FU busy rate (busy events/executed inst)
system.cpu.iq.int_inst_queue_reads            8159631                       # Number of integer instruction queue reads
system.cpu.iq.int_inst_queue_writes           4023998                       # Number of integer instruction queue writes
system.cpu.iq.int_inst_queue_wakeup_accesses      2182178                       # Number of integer instruction queue wakeup accesses
system.cpu.iq.fp_inst_queue_reads                6932                       # Number of floating instruction queue reads
system.cpu.iq.fp_inst_queue_writes               5444                       # Number of floating instruction queue writes
system.cpu.iq.fp_inst_queue_wakeup_accesses         2840                       # Number of floating instruction queue wakeup accesses
system.cpu.iq.vec_inst_queue_reads                  0                       # Number of vector instruction queue reads
system.cpu.iq.vec_inst_queue_writes                 0                       # Number of vector instruction queue writes
system.cpu.iq.vec_inst_queue_wakeup_accesses            0                       # Number of vector instruction queue wakeup accesses
system.cpu.iq.int_alu_accesses                3208369                       # Number of integer alu accesses
system.cpu.iq.fp_alu_accesses                    3497                       # Number of floating point alu accesses
system.cpu.iq.vec_alu_accesses                      0                       # Number of vector alu accesses
system.cpu.iew.lsq.thread0.forwLoads           144408                       # Number of loads that had data forwarded from stores
system.cpu.iew.lsq.thread0.invAddrLoads             0                       # Number of loads ignored due to an invalid address
system.cpu.iew.lsq.thread0.squashedLoads       218129                       # Number of loads squashed
system.cpu.iew.lsq.thread0.ignoredResponses          606                       # Number of memory responses ignored because the instruction is squashed
system.cpu.iew.lsq.thread0.memOrderViolation          556                       # Number of memory ordering violations
system.cpu.iew.lsq.thread0.squashedStores        68689                       # Number of stores squashed
system.cpu.iew.lsq.thread0.invAddrSwpfs             0                       # Number of software prefetches ignored due to an invalid address
system.cpu.iew.lsq.thread0.blockedLoads             0                       # Number of blocked loads due to partial load-store forwarding
system.cpu.iew.lsq.thread0.rescheduledLoads          102                       # Number of loads that were rescheduled
system.cpu.iew.lsq.thread0.cacheBlocked            14                       # Number of times an access to memory failed due to the cache being blocked
system.cpu.iew.iewIdleCycles                        0                       # Number of cycles IEW is idle
system.cpu.iew.iewSquashCycles                  57423                       # Number of cycles IEW is squashing
system.cpu.iew.iewBlockCycles                   31979                       # Number of cycles IEW is blocking
system.cpu.iew.iewUnblockCycles                  3280                       # Number of cycles IEW is unblocking
system.cpu.iew.iewDispatchedInsts             2996594                       # Number of instructions dispatched to IQ
system.cpu.iew.iewDispSquashedInsts             57148                       # Number of squashed instructions skipped by dispatch
system.cpu.iew.iewDispLoadInsts                557392                       # Number of dispatched load instructions
system.cpu.iew.iewDispStoreInsts               358929                       # Number of dispatched store instructions
system.cpu.iew.iewDispNonSpecInsts                273                       # Number of dispatched non-speculative instructions
system.cpu.iew.iewIQFullEvents                     78                       # Number of times the IQ has become full, causing a stall
system.cpu.iew.iewLSQFullEvents                  3146                       # Number of times the LSQ has become full, causing a stall
system.cpu.iew.memOrderViolationEvents            556                       # Number of memory order violations
system.cpu.iew.predictedTakenIncorrect          26303                       # Number of branches that were predicted taken incorrectly
system.cpu.iew.predictedNotTakenIncorrect        33930                       # Number of branches that were predicted not taken incorrectly
system.cpu.iew.branchMispredicts                60233                       # Number of branch mispredicts detected at execute
system.cpu.iew.iewExecutedInsts               2203350                       # Number of executed instructions
system.cpu.iew.iewExecLoadInsts                394359                       # Number of load instructions executed
system.cpu.iew.iewExecSquashedInsts            121009                       # Number of squashed instructions skipped in execute
system.cpu.iew.exec_swp                             0                       # number of swp insts executed
system.cpu.iew.exec_nop                             0                       # number of nop insts executed
system.cpu.iew.exec_refs                       696262                       # number of memory reference insts executed
system.cpu.iew.exec_branches                   194576                       # Number of branches executed
system.cpu.iew.exec_stores                     301903                       # Number of stores executed
system.cpu.iew.exec_rate                     0.852853                       # Inst execution rate
system.cpu.iew.wb_sent                        2189926                       # cumulative count of insts sent to commit
system.cpu.iew.wb_count                       2185018                       # cumulative count of insts written-back
system.cpu.iew.wb_producers                   1502601                       # num instructions producing a value
system.cpu.iew.wb_consumers                   2681692                       # num instructions consuming a value
system.cpu.iew.wb_rate                       0.845757                       # insts written-back per cycle
system.cpu.iew.wb_fanout                     0.560318                       # average fanout of values written-back
system.cpu.commit.commitSquashedInsts          930395                       # The number of squashed insts skipped by commit
system.cpu.commit.commitNonSpecStalls              16                       # The number of times commit has been forced to stall to communicate backwards
system.cpu.commit.branchMispredicts             56973                       # The number of times a branch was mispredicted
system.cpu.commit.committed_per_cycle::samples      2413550                       # Number of insts commited each cycle
system.cpu.commit.committed_per_cycle::mean     0.813860                       # Number of insts commited each cycle
system.cpu.commit.committed_per_cycle::stdev     0.883750                       # Number of insts commited each cycle
system.cpu.commit.committed_per_cycle::underflows            0      0.00%      0.00% # Number of insts commited each cycle
system.cpu.commit.committed_per_cycle::0      1208949     50.09%     50.09% # Number of insts commited each cycle
system.cpu.commit.committed_per_cycle::1       444911     18.43%     68.52% # Number of insts commited each cycle
system.cpu.commit.committed_per_cycle::2       759690     31.48%    100.00% # Number of insts commited each cycle
system.cpu.commit.committed_per_cycle::overflows            0      0.00%    100.00% # Number of insts commited each cycle
system.cpu.commit.committed_per_cycle::min_value            0                       # Number of insts commited each cycle
system.cpu.commit.committed_per_cycle::max_value            2                       # Number of insts commited each cycle
system.cpu.commit.committed_per_cycle::total      2413550                       # Number of insts commited each cycle
system.cpu.commit.committedInsts              1035109                       # Number of instructions committed
system.cpu.commit.committedOps                1964291                       # Number of ops (including micro ops) committed
system.cpu.commit.swp_count                         0                       # Number of s/w prefetches committed
system.cpu.commit.refs                         629503                       # Number of memory references committed
system.cpu.commit.loads                        339263                       # Number of loads committed
system.cpu.commit.membars                           0                       # Number of memory barriers committed
system.cpu.commit.branches                     187086                       # Number of branches committed
system.cpu.commit.vec_insts                         0                       # Number of committed Vector instructions.
system.cpu.commit.fp_insts                       2460                       # Number of committed floating point instructions.
system.cpu.commit.int_insts                   1947020                       # Number of committed integer instructions.
system.cpu.commit.function_calls                70179                       # Number of function calls committed.
system.cpu.commit.op_class_0::No_OpClass         5141      0.26%      0.26% # Class of committed instruction
system.cpu.commit.op_class_0::IntAlu          1326762     67.54%     67.81% # Class of committed instruction
system.cpu.commit.op_class_0::IntMult            1481      0.08%     67.88% # Class of committed instruction
system.cpu.commit.op_class_0::IntDiv               56      0.00%     67.88% # Class of committed instruction
system.cpu.commit.op_class_0::FloatAdd              2      0.00%     67.88% # Class of committed instruction
system.cpu.commit.op_class_0::FloatCmp              0      0.00%     67.88% # Class of committed instruction
system.cpu.commit.op_class_0::FloatCvt              0      0.00%     67.88% # Class of committed instruction
system.cpu.commit.op_class_0::FloatMult             0      0.00%     67.88% # Class of committed instruction
system.cpu.commit.op_class_0::FloatMultAcc            0      0.00%     67.88% # Class of committed instruction
system.cpu.commit.op_class_0::FloatDiv              0      0.00%     67.88% # Class of committed instruction
system.cpu.commit.op_class_0::FloatMisc             0      0.00%     67.88% # Class of committed instruction
system.cpu.commit.op_class_0::FloatSqrt             0      0.00%     67.88% # Class of committed instruction
system.cpu.commit.op_class_0::SimdAdd              16      0.00%     67.88% # Class of committed instruction
system.cpu.commit.op_class_0::SimdAddAcc            0      0.00%     67.88% # Class of committed instruction
system.cpu.commit.op_class_0::SimdAlu             764      0.04%     67.92% # Class of committed instruction
system.cpu.commit.op_class_0::SimdCmp               0      0.00%     67.92% # Class of committed instruction
system.cpu.commit.op_class_0::SimdCvt             284      0.01%     67.94% # Class of committed instruction
system.cpu.commit.op_class_0::SimdMisc            282      0.01%     67.95% # Class of committed instruction
system.cpu.commit.op_class_0::SimdMult              0      0.00%     67.95% # Class of committed instruction
system.cpu.commit.op_class_0::SimdMultAcc            0      0.00%     67.95% # Class of committed instruction
system.cpu.commit.op_class_0::SimdShift             0      0.00%     67.95% # Class of committed instruction
system.cpu.commit.op_class_0::SimdShiftAcc            0      0.00%     67.95% # Class of committed instruction
system.cpu.commit.op_class_0::SimdSqrt              0      0.00%     67.95% # Class of committed instruction
system.cpu.commit.op_class_0::SimdFloatAdd            0      0.00%     67.95% # Class of committed instruction
system.cpu.commit.op_class_0::SimdFloatAlu            0      0.00%     67.95% # Class of committed instruction
system.cpu.commit.op_class_0::SimdFloatCmp            0      0.00%     67.95% # Class of committed instruction
system.cpu.commit.op_class_0::SimdFloatCvt            0      0.00%     67.95% # Class of committed instruction
system.cpu.commit.op_class_0::SimdFloatDiv            0      0.00%     67.95% # Class of committed instruction
system.cpu.commit.op_class_0::SimdFloatMisc            0      0.00%     67.95% # Class of committed instruction
system.cpu.commit.op_class_0::SimdFloatMult            0      0.00%     67.95% # Class of committed instruction
system.cpu.commit.op_class_0::SimdFloatMultAcc            0      0.00%     67.95% # Class of committed instruction
system.cpu.commit.op_class_0::SimdFloatSqrt            0      0.00%     67.95% # Class of committed instruction
system.cpu.commit.op_class_0::SimdAes               0      0.00%     67.95% # Class of committed instruction
system.cpu.commit.op_class_0::SimdAesMix            0      0.00%     67.95% # Class of committed instruction
system.cpu.commit.op_class_0::SimdSha1Hash            0      0.00%     67.95% # Class of committed instruction
system.cpu.commit.op_class_0::SimdSha1Hash2            0      0.00%     67.95% # Class of committed instruction
system.cpu.commit.op_class_0::SimdSha256Hash            0      0.00%     67.95% # Class of committed instruction
system.cpu.commit.op_class_0::SimdSha256Hash2            0      0.00%     67.95% # Class of committed instruction
system.cpu.commit.op_class_0::SimdShaSigma2            0      0.00%     67.95% # Class of committed instruction
system.cpu.commit.op_class_0::SimdShaSigma3            0      0.00%     67.95% # Class of committed instruction
system.cpu.commit.op_class_0::MemRead          338635     17.24%     85.19% # Class of committed instruction
system.cpu.commit.op_class_0::MemWrite         289764     14.75%     99.94% # Class of committed instruction
system.cpu.commit.op_class_0::FloatMemRead          628      0.03%     99.98% # Class of committed instruction
system.cpu.commit.op_class_0::FloatMemWrite          476      0.02%    100.00% # Class of committed instruction
system.cpu.commit.op_class_0::IprAccess             0      0.00%    100.00% # Class of committed instruction
system.cpu.commit.op_class_0::InstPrefetch            0      0.00%    100.00% # Class of committed instruction
system.cpu.commit.op_class_0::total           1964291                       # Class of committed instruction
system.cpu.commit.bw_lim_events                759690                       # number cycles where commit BW limit reached
system.cpu.rob.rob_reads                      4548546                       # The number of ROB reads
system.cpu.rob.rob_writes                     5875463                       # The number of ROB writes
system.cpu.timesIdled                             944                       # Number of times that the entire CPU went into an idle state and unscheduled itself
system.cpu.idleCycles                           83954                       # Total number of cycles that the CPU has spent unscheduled due to idling
system.cpu.committedInsts                     1035109                       # Number of Instructions Simulated
system.cpu.committedOps                       1964291                       # Number of Ops (including micro ops) Simulated
system.cpu.cpi                               2.495877                       # CPI: Cycles Per Instruction
system.cpu.cpi_total                         2.495877                       # CPI: Total CPI of All Threads
system.cpu.ipc                               0.400661                       # IPC: Instructions Per Cycle
system.cpu.ipc_total                         0.400661                       # IPC: Total IPC of All Threads
system.cpu.int_regfile_reads                  3866331                       # number of integer regfile reads
system.cpu.int_regfile_writes                 1658307                       # number of integer regfile writes
system.cpu.fp_regfile_reads                      3445                       # number of floating regfile reads
system.cpu.fp_regfile_writes                     1998                       # number of floating regfile writes
system.cpu.cc_regfile_reads                    326196                       # number of cc regfile reads
system.cpu.cc_regfile_writes                   305879                       # number of cc regfile writes
system.cpu.misc_regfile_reads                 1033356                       # number of misc regfile reads
system.cpu.dcache.tags.pwrStateResidencyTicks::UNDEFINED   1291752000                       # Cumulative time (in ticks) in various power states
system.cpu.dcache.tags.tagsinuse           251.168771                       # Cycle average of tags in use
system.cpu.dcache.tags.total_refs              538129                       # Total number of references to valid blocks.
system.cpu.dcache.tags.sampled_refs               640                       # Sample count of references to valid blocks.
system.cpu.dcache.tags.avg_refs            840.826563                       # Average number of references to valid blocks.
system.cpu.dcache.tags.warmup_cycle            190000                       # Cycle when the warmup percentage was hit.
system.cpu.dcache.tags.occ_blocks::.cpu.data   251.168771                       # Average occupied blocks per requestor
system.cpu.dcache.tags.occ_percent::.cpu.data     0.981128                       # Average percentage of cache occupancy
system.cpu.dcache.tags.occ_percent::total     0.981128                       # Average percentage of cache occupancy
system.cpu.dcache.tags.occ_task_id_blocks::1024          256                       # Occupied blocks per task id
system.cpu.dcache.tags.age_task_id_blocks_1024::0           37                       # Occupied blocks per task id
system.cpu.dcache.tags.age_task_id_blocks_1024::1            7                       # Occupied blocks per task id
system.cpu.dcache.tags.age_task_id_blocks_1024::2           70                       # Occupied blocks per task id
system.cpu.dcache.tags.age_task_id_blocks_1024::3          142                       # Occupied blocks per task id
system.cpu.dcache.tags.occ_task_id_percent::1024            1                       # Percentage of cache occupancy per task id
system.cpu.dcache.tags.tag_accesses           4307096                       # Number of tag accesses
system.cpu.dcache.tags.data_accesses          4307096                       # Number of data accesses
system.cpu.dcache.pwrStateResidencyTicks::UNDEFINED   1291752000                       # Cumulative time (in ticks) in various power states
system.cpu.dcache.ReadReq_hits::.cpu.data       247552                       # number of ReadReq hits
system.cpu.dcache.ReadReq_hits::total          247552                       # number of ReadReq hits
system.cpu.dcache.WriteReq_hits::.cpu.data       289936                       # number of WriteReq hits
system.cpu.dcache.WriteReq_hits::total         289936                       # number of WriteReq hits
system.cpu.dcache.demand_hits::.cpu.data       537488                       # number of demand (read+write) hits
system.cpu.dcache.demand_hits::total           537488                       # number of demand (read+write) hits
system.cpu.dcache.overall_hits::.cpu.data       537488                       # number of overall hits
system.cpu.dcache.overall_hits::total          537488                       # number of overall hits
system.cpu.dcache.ReadReq_misses::.cpu.data          474                       # number of ReadReq misses
system.cpu.dcache.ReadReq_misses::total           474                       # number of ReadReq misses
system.cpu.dcache.WriteReq_misses::.cpu.data          345                       # number of WriteReq misses
system.cpu.dcache.WriteReq_misses::total          345                       # number of WriteReq misses
system.cpu.dcache.demand_misses::.cpu.data          819                       # number of demand (read+write) misses
system.cpu.dcache.demand_misses::total            819                       # number of demand (read+write) misses
system.cpu.dcache.overall_misses::.cpu.data          819                       # number of overall misses
system.cpu.dcache.overall_misses::total           819                       # number of overall misses
system.cpu.dcache.ReadReq_miss_latency::.cpu.data     31840000                       # number of ReadReq miss cycles
system.cpu.dcache.ReadReq_miss_latency::total     31840000                       # number of ReadReq miss cycles
system.cpu.dcache.WriteReq_miss_latency::.cpu.data     43789000                       # number of WriteReq miss cycles
system.cpu.dcache.WriteReq_miss_latency::total     43789000                       # number of WriteReq miss cycles
system.cpu.dcache.demand_miss_latency::.cpu.data     75629000                       # number of demand (read+write) miss cycles
system.cpu.dcache.demand_miss_latency::total     75629000                       # number of demand (read+write) miss cycles
system.cpu.dcache.overall_miss_latency::.cpu.data     75629000                       # number of overall miss cycles
system.cpu.dcache.overall_miss_latency::total     75629000                       # number of overall miss cycles
system.cpu.dcache.ReadReq_accesses::.cpu.data       248026                       # number of ReadReq accesses(hits+misses)
system.cpu.dcache.ReadReq_accesses::total       248026                       # number of ReadReq accesses(hits+misses)
system.cpu.dcache.WriteReq_accesses::.cpu.data       290281                       # number of WriteReq accesses(hits+misses)
system.cpu.dcache.WriteReq_accesses::total       290281                       # number of WriteReq accesses(hits+misses)
system.cpu.dcache.demand_accesses::.cpu.data       538307                       # number of demand (read+write) accesses
system.cpu.dcache.demand_accesses::total       538307                       # number of demand (read+write) accesses
system.cpu.dcache.overall_accesses::.cpu.data       538307                       # number of overall (read+write) accesses
system.cpu.dcache.overall_accesses::total       538307                       # number of overall (read+write) accesses
system.cpu.dcache.ReadReq_miss_rate::.cpu.data     0.001911                       # miss rate for ReadReq accesses
system.cpu.dcache.ReadReq_miss_rate::total     0.001911                       # miss rate for ReadReq accesses
system.cpu.dcache.WriteReq_miss_rate::.cpu.data     0.001189                       # miss rate for WriteReq accesses
system.cpu.dcache.WriteReq_miss_rate::total     0.001189                       # miss rate for WriteReq accesses
system.cpu.dcache.demand_miss_rate::.cpu.data     0.001521                       # miss rate for demand accesses
system.cpu.dcache.demand_miss_rate::total     0.001521                       # miss rate for demand accesses
system.cpu.dcache.overall_miss_rate::.cpu.data     0.001521                       # miss rate for overall accesses
system.cpu.dcache.overall_miss_rate::total     0.001521                       # miss rate for overall accesses
system.cpu.dcache.ReadReq_avg_miss_latency::.cpu.data 67172.995781                       # average ReadReq miss latency
system.cpu.dcache.ReadReq_avg_miss_latency::total 67172.995781                       # average ReadReq miss latency
system.cpu.dcache.WriteReq_avg_miss_latency::.cpu.data 126924.637681                       # average WriteReq miss latency
system.cpu.dcache.WriteReq_avg_miss_latency::total 126924.637681                       # average WriteReq miss latency
system.cpu.dcache.demand_avg_miss_latency::.cpu.data 92343.101343                       # average overall miss latency
[...]
system.l3bus.snoop_fanout::min_value                0                       # Request fanout histogram
system.l3bus.snoop_fanout::max_value                0                       # Request fanout histogram
system.l3bus.snoop_fanout::total                 2349                       # Request fanout histogram
system.l3bus.reqLayer0.occupancy              1177000                       # Layer occupancy (ticks)
system.l3bus.reqLayer0.utilization                0.1                       # Layer utilization (%)
system.l3bus.respLayer0.occupancy             5872500                       # Layer occupancy (ticks)
system.l3bus.respLayer0.utilization               0.5                       # Layer utilization (%)
system.l3cache.tags.pwrStateResidencyTicks::UNDEFINED   1291752000                       # Cumulative time (in ticks) in various power states
system.l3cache.tags.tagsinuse             1970.273741                       # Cycle average of tags in use
system.l3cache.tags.total_refs                   2349                       # Total number of references to valid blocks.
system.l3cache.tags.sampled_refs                 2349                       # Sample count of references to valid blocks.
system.l3cache.tags.avg_refs                        1                       # Average number of references to valid blocks.
system.l3cache.tags.warmup_cycle                76000                       # Cycle when the warmup percentage was hit.
system.l3cache.tags.occ_blocks::.cpu.inst  1486.996690                       # Average occupied blocks per requestor
system.l3cache.tags.occ_blocks::.cpu.data   483.277051                       # Average occupied blocks per requestor
system.l3cache.tags.occ_percent::.cpu.inst     0.045380                       # Average percentage of cache occupancy
system.l3cache.tags.occ_percent::.cpu.data     0.014748                       # Average percentage of cache occupancy
system.l3cache.tags.occ_percent::total       0.060128                       # Average percentage of cache occupancy
system.l3cache.tags.occ_task_id_blocks::1024         2349                       # Occupied blocks per task id
system.l3cache.tags.age_task_id_blocks_1024::0           91                       # Occupied blocks per task id
system.l3cache.tags.age_task_id_blocks_1024::1           39                       # Occupied blocks per task id
system.l3cache.tags.age_task_id_blocks_1024::2          157                       # Occupied blocks per task id
system.l3cache.tags.age_task_id_blocks_1024::3         2062                       # Occupied blocks per task id
system.l3cache.tags.occ_task_id_percent::1024     0.071686                       # Percentage of cache occupancy per task id
system.l3cache.tags.tag_accesses                39933                       # Number of tag accesses
system.l3cache.tags.data_accesses               39933                       # Number of data accesses
system.l3cache.pwrStateResidencyTicks::UNDEFINED   1291752000                       # Cumulative time (in ticks) in various power states
system.l3cache.ReadExReq_misses::.cpu.data          341                       # number of ReadExReq misses
system.l3cache.ReadExReq_misses::total            341                       # number of ReadExReq misses
system.l3cache.ReadSharedReq_misses::.cpu.inst         1795                       # number of ReadSharedReq misses
system.l3cache.ReadSharedReq_misses::.cpu.data          213                       # number of ReadSharedReq misses
system.l3cache.ReadSharedReq_misses::total         2008                       # number of ReadSharedReq misses
system.l3cache.demand_misses::.cpu.inst          1795                       # number of demand (read+write) misses
system.l3cache.demand_misses::.cpu.data           554                       # number of demand (read+write) misses
system.l3cache.demand_misses::total              2349                       # number of demand (read+write) misses
system.l3cache.overall_misses::.cpu.inst         1795                       # number of overall misses
system.l3cache.overall_misses::.cpu.data          554                       # number of overall misses
system.l3cache.overall_misses::total             2349                       # number of overall misses
system.l3cache.ReadExReq_miss_latency::.cpu.data     39133000                       # number of ReadExReq miss cycles
system.l3cache.ReadExReq_miss_latency::total     39133000                       # number of ReadExReq miss cycles
system.l3cache.ReadSharedReq_miss_latency::.cpu.inst    133478000                       # number of ReadSharedReq miss cycles
system.l3cache.ReadSharedReq_miss_latency::.cpu.data     16064500                       # number of ReadSharedReq miss cycles
system.l3cache.ReadSharedReq_miss_latency::total    149542500                       # number of ReadSharedReq miss cycles
system.l3cache.demand_miss_latency::.cpu.inst    133478000                       # number of demand (read+write) miss cycles
system.l3cache.demand_miss_latency::.cpu.data     55197500                       # number of demand (read+write) miss cycles
system.l3cache.demand_miss_latency::total    188675500                       # number of demand (read+write) miss cycles
system.l3cache.overall_miss_latency::.cpu.inst    133478000                       # number of overall miss cycles
system.l3cache.overall_miss_latency::.cpu.data     55197500                       # number of overall miss cycles
system.l3cache.overall_miss_latency::total    188675500                       # number of overall miss cycles
system.l3cache.ReadExReq_accesses::.cpu.data          341                       # number of ReadExReq accesses(hits+misses)
system.l3cache.ReadExReq_accesses::total          341                       # number of ReadExReq accesses(hits+misses)
system.l3cache.ReadSharedReq_accesses::.cpu.inst         1795                       # number of ReadSharedReq accesses(hits+misses)
system.l3cache.ReadSharedReq_accesses::.cpu.data          213                       # number of ReadSharedReq accesses(hits+misses)
system.l3cache.ReadSharedReq_accesses::total         2008                       # number of ReadSharedReq accesses(hits+misses)
system.l3cache.demand_accesses::.cpu.inst         1795                       # number of demand (read+write) accesses
system.l3cache.demand_accesses::.cpu.data          554                       # number of demand (read+write) accesses
system.l3cache.demand_accesses::total            2349                       # number of demand (read+write) accesses
system.l3cache.overall_accesses::.cpu.inst         1795                       # number of overall (read+write) accesses
system.l3cache.overall_accesses::.cpu.data          554                       # number of overall (read+write) accesses
system.l3cache.overall_accesses::total           2349                       # number of overall (read+write) accesses
system.l3cache.ReadExReq_miss_rate::.cpu.data            1                       # miss rate for ReadExReq accesses
system.l3cache.ReadExReq_miss_rate::total            1                       # miss rate for ReadExReq accesses
system.l3cache.ReadSharedReq_miss_rate::.cpu.inst            1                       # miss rate for ReadSharedReq accesses
system.l3cache.ReadSharedReq_miss_rate::.cpu.data            1                       # miss rate for ReadSharedReq accesses
system.l3cache.ReadSharedReq_miss_rate::total            1                       # miss rate for ReadSharedReq accesses
system.l3cache.demand_miss_rate::.cpu.inst            1                       # miss rate for demand accesses
system.l3cache.demand_miss_rate::.cpu.data            1                       # miss rate for demand accesses
system.l3cache.demand_miss_rate::total              1                       # miss rate for demand accesses
system.l3cache.overall_miss_rate::.cpu.inst            1                       # miss rate for overall accesses
system.l3cache.overall_miss_rate::.cpu.data            1                       # miss rate for overall accesses
system.l3cache.overall_miss_rate::total             1                       # miss rate for overall accesses
system.l3cache.ReadExReq_avg_miss_latency::.cpu.data 114759.530792                       # average ReadExReq miss latency
system.l3cache.ReadExReq_avg_miss_latency::total 114759.530792                       # average ReadExReq miss latency
system.l3cache.ReadSharedReq_avg_miss_latency::.cpu.inst 74361.002786                       # average ReadSharedReq miss latency
system.l3cache.ReadSharedReq_avg_miss_latency::.cpu.data 75420.187793                       # average ReadSharedReq miss latency
system.l3cache.ReadSharedReq_avg_miss_latency::total 74473.356574                       # average ReadSharedReq miss latency
system.l3cache.demand_avg_miss_latency::.cpu.inst 74361.002786                       # average overall miss latency
system.l3cache.demand_avg_miss_latency::.cpu.data 99634.476534                       # average overall miss latency
system.l3cache.demand_avg_miss_latency::total 80321.626224                       # average overall miss latency
system.l3cache.overall_avg_miss_latency::.cpu.inst 74361.002786                       # average overall miss latency
system.l3cache.overall_avg_miss_latency::.cpu.data 99634.476534                       # average overall miss latency
system.l3cache.overall_avg_miss_latency::total 80321.626224                       # average overall miss latency
system.l3cache.blocked_cycles::no_mshrs             0                       # number of cycles access was blocked
system.l3cache.blocked_cycles::no_targets            0                       # number of cycles access was blocked
system.l3cache.blocked::no_mshrs                    0                       # number of cycles access was blocked
system.l3cache.blocked::no_targets                  0                       # number of cycles access was blocked
system.l3cache.avg_blocked_cycles::no_mshrs          nan                       # average number of cycles each access was blocked
system.l3cache.avg_blocked_cycles::no_targets          nan                       # average number of cycles each access was blocked
system.l3cache.ReadExReq_mshr_misses::.cpu.data          341                       # number of ReadExReq MSHR misses
system.l3cache.ReadExReq_mshr_misses::total          341                       # number of ReadExReq MSHR misses
system.l3cache.ReadSharedReq_mshr_misses::.cpu.inst         1795                       # number of ReadSharedReq MSHR misses
system.l3cache.ReadSharedReq_mshr_misses::.cpu.data          213                       # number of ReadSharedReq MSHR misses
system.l3cache.ReadSharedReq_mshr_misses::total         2008                       # number of ReadSharedReq MSHR misses
system.l3cache.demand_mshr_misses::.cpu.inst         1795                       # number of demand (read+write) MSHR misses
system.l3cache.demand_mshr_misses::.cpu.data          554                       # number of demand (read+write) MSHR misses
system.l3cache.demand_mshr_misses::total         2349                       # number of demand (read+write) MSHR misses
system.l3cache.overall_mshr_misses::.cpu.inst         1795                       # number of overall MSHR misses
system.l3cache.overall_mshr_misses::.cpu.data          554                       # number of overall MSHR misses
system.l3cache.overall_mshr_misses::total         2349                       # number of overall MSHR misses
system.l3cache.ReadExReq_mshr_miss_latency::.cpu.data     38451000                       # number of ReadExReq MSHR miss cycles
system.l3cache.ReadExReq_mshr_miss_latency::total     38451000                       # number of ReadExReq MSHR miss cycles
system.l3cache.ReadSharedReq_mshr_miss_latency::.cpu.inst    129888000                       # number of ReadSharedReq MSHR miss cycles
system.l3cache.ReadSharedReq_mshr_miss_latency::.cpu.data     15638500                       # number of ReadSharedReq MSHR miss cycles
system.l3cache.ReadSharedReq_mshr_miss_latency::total    145526500                       # number of ReadSharedReq MSHR miss cycles
system.l3cache.demand_mshr_miss_latency::.cpu.inst    129888000                       # number of demand (read+write) MSHR miss cycles
system.l3cache.demand_mshr_miss_latency::.cpu.data     54089500                       # number of demand (read+write) MSHR miss cycles
system.l3cache.demand_mshr_miss_latency::total    183977500                       # number of demand (read+write) MSHR miss cycles
system.l3cache.overall_mshr_miss_latency::.cpu.inst    129888000                       # number of overall MSHR miss cycles
system.l3cache.overall_mshr_miss_latency::.cpu.data     54089500                       # number of overall MSHR miss cycles
system.l3cache.overall_mshr_miss_latency::total    183977500                       # number of overall MSHR miss cycles
system.l3cache.ReadExReq_mshr_miss_rate::.cpu.data            1                       # mshr miss rate for ReadExReq accesses
system.l3cache.ReadExReq_mshr_miss_rate::total            1                       # mshr miss rate for ReadExReq accesses
system.l3cache.ReadSharedReq_mshr_miss_rate::.cpu.inst            1                       # mshr miss rate for ReadSharedReq accesses
system.l3cache.ReadSharedReq_mshr_miss_rate::.cpu.data            1                       # mshr miss rate for ReadSharedReq accesses
system.l3cache.ReadSharedReq_mshr_miss_rate::total            1                       # mshr miss rate for ReadSharedReq accesses
system.l3cache.demand_mshr_miss_rate::.cpu.inst            1                       # mshr miss rate for demand accesses
system.l3cache.demand_mshr_miss_rate::.cpu.data            1                       # mshr miss rate for demand accesses
system.l3cache.demand_mshr_miss_rate::total            1                       # mshr miss rate for demand accesses
system.l3cache.overall_mshr_miss_rate::.cpu.inst            1                       # mshr miss rate for overall accesses
system.l3cache.overall_mshr_miss_rate::.cpu.data            1                       # mshr miss rate for overall accesses
system.l3cache.overall_mshr_miss_rate::total            1                       # mshr miss rate for overall accesses
system.l3cache.ReadExReq_avg_mshr_miss_latency::.cpu.data 112759.530792                       # average ReadExReq mshr miss latency
system.l3cache.ReadExReq_avg_mshr_miss_latency::total 112759.530792                       # average ReadExReq mshr miss latency
system.l3cache.ReadSharedReq_avg_mshr_miss_latency::.cpu.inst 72361.002786                       # average ReadSharedReq mshr miss latency
system.l3cache.ReadSharedReq_avg_mshr_miss_latency::.cpu.data 73420.187793                       # average ReadSharedReq mshr miss latency
system.l3cache.ReadSharedReq_avg_mshr_miss_latency::total 72473.356574                       # average ReadSharedReq mshr miss latency
system.l3cache.demand_avg_mshr_miss_latency::.cpu.inst 72361.002786                       # average overall mshr miss latency
system.l3cache.demand_avg_mshr_miss_latency::.cpu.data 97634.476534                       # average overall mshr miss latency
system.l3cache.demand_avg_mshr_miss_latency::total 78321.626224                       # average overall mshr miss latency
system.l3cache.overall_avg_mshr_miss_latency::.cpu.inst 72361.002786                       # average overall mshr miss latency
system.l3cache.overall_avg_mshr_miss_latency::.cpu.data 97634.476534                       # average overall mshr miss latency
system.l3cache.overall_avg_mshr_miss_latency::total 78321.626224                       # average overall mshr miss latency
system.l3cache.replacements                         0                       # number of replacements
system.membus.snoop_filter.tot_requests          2349                       # Total number of requests made to the snoop filter.
system.membus.snoop_filter.hit_single_requests            0                       # Number of requests hitting in the snoop filter with a single holder of the requested data.
system.membus.snoop_filter.hit_multi_requests            0                       # Number of requests hitting in the snoop filter with multiple (>1) holders of the requested data.
system.membus.snoop_filter.tot_snoops               0                       # Total number of snoops made to the snoop filter.
system.membus.snoop_filter.hit_single_snoops            0                       # Number of snoops hitting in the snoop filter with a single holder of the requested data.
system.membus.snoop_filter.hit_multi_snoops            0                       # Number of snoops hitting in the snoop filter with multiple (>1) holders of the requested data.
system.membus.pwrStateResidencyTicks::UNDEFINED   1291752000                       # Cumulative time (in ticks) in various power states
system.membus.trans_dist::ReadResp               2008                       # Transaction distribution
system.membus.trans_dist::ReadExReq               341                       # Transaction distribution
system.membus.trans_dist::ReadExResp              341                       # Transaction distribution
system.membus.trans_dist::ReadSharedReq          2008                       # Transaction distribution
system.membus.pkt_count_system.l3cache.mem_side::system.mem_ctrl.port         4698                       # Packet count per connected master and slave (bytes)
system.membus.pkt_count_system.l3cache.mem_side::total         4698                       # Packet count per connected master and slave (bytes)
system.membus.pkt_count::total                   4698                       # Packet count per connected master and slave (bytes)
system.membus.pkt_size_system.l3cache.mem_side::system.mem_ctrl.port       150336                       # Cumulative packet size per connected master and slave (bytes)
system.membus.pkt_size_system.l3cache.mem_side::total       150336                       # Cumulative packet size per connected master and slave (bytes)
system.membus.pkt_size::total                  150336                       # Cumulative packet size per connected master and slave (bytes)
system.membus.snoops                                0                       # Total snoops (count)
system.membus.snoopTraffic                          0                       # Total snoop traffic (bytes)
system.membus.snoop_fanout::samples              2349                       # Request fanout histogram
system.membus.snoop_fanout::mean                    0                       # Request fanout histogram
system.membus.snoop_fanout::stdev                   0                       # Request fanout histogram
system.membus.snoop_fanout::underflows              0      0.00%      0.00% # Request fanout histogram
system.membus.snoop_fanout::0                    2349    100.00%    100.00% # Request fanout histogram
system.membus.snoop_fanout::1                       0      0.00%    100.00% # Request fanout histogram
system.membus.snoop_fanout::overflows               0      0.00%    100.00% # Request fanout histogram
system.membus.snoop_fanout::min_value               0                       # Request fanout histogram
system.membus.snoop_fanout::max_value               0                       # Request fanout histogram
system.membus.snoop_fanout::total                2349                       # Request fanout histogram
system.membus.reqLayer0.occupancy             1174500                       # Layer occupancy (ticks)
system.membus.reqLayer0.utilization               0.1                       # Layer utilization (%)
system.membus.respLayer0.occupancy            6369750                       # Layer occupancy (ticks)
system.membus.respLayer0.utilization              0.5                       # Layer utilization (%)

---------- End Simulation Statistics   ----------
