
---------- Begin Simulation Statistics ----------
sim_seconds                                  0.000822                       # Number of seconds simulated
sim_ticks                                   821953000                       # Number of ticks simulated
final_tick                                  821953000                       # Number of ticks from beginning of simulation (restored from checkpoints and never reset)
sim_freq                                 1000000000000                       # Frequency of simulated ticks
host_inst_rate                                  86678                       # Simulator instruction rate (inst/s)
host_op_rate                                   164660                       # Simulator op (including micro ops) rate (op/s)
host_tick_rate                              116293230                       # Simulator tick rate (ticks/s)
host_mem_usage                                 708084                       # Number of bytes of host memory used
host_seconds                                     7.07                       # Real time elapsed on the host
sim_insts                                      612636                       # Number of instructions simulated
sim_ops                                       1163804                       # Number of ops (including micro ops) simulated
system.clk_domain.voltage_domain.voltage            1                       # Voltage in Volts
system.clk_domain.clock                           500                       # Clock period in ticks
system.mem_ctrl.pwrStateResidencyTicks::UNDEFINED    821953000                       # Cumulative time (in ticks) in various power states
system.mem_ctrl.bytes_read::.cpu.inst          115008                       # Number of bytes read from this memory
system.mem_ctrl.bytes_read::.cpu.data           33920                       # Number of bytes read from this memory
system.mem_ctrl.bytes_read::total              148928                       # Number of bytes read from this memory
system.mem_ctrl.bytes_inst_read::.cpu.inst       115008                       # Number of instructions bytes read from this memory
system.mem_ctrl.bytes_inst_read::total         115008                       # Number of instructions bytes read from this memory
system.mem_ctrl.num_reads::.cpu.inst             1797                       # Number of read requests responded to by this memory
system.mem_ctrl.num_reads::.cpu.data              530                       # Number of read requests responded to by this memory
system.mem_ctrl.num_reads::total                 2327                       # Number of read requests responded to by this memory
system.mem_ctrl.bw_read::.cpu.inst          139920409                       # Total read bandwidth from this memory (bytes/s)
system.mem_ctrl.bw_read::.cpu.data           41267566                       # Total read bandwidth from this memory (bytes/s)
system.mem_ctrl.bw_read::total              181187975                       # Total read bandwidth from this memory (bytes/s)
system.mem_ctrl.bw_inst_read::.cpu.inst     139920409                       # Instruction read bandwidth from this memory (bytes/s)
system.mem_ctrl.bw_inst_read::total         139920409                       # Instruction read bandwidth from this memory (bytes/s)
system.mem_ctrl.bw_total::.cpu.inst         139920409                       # Total bandwidth to/from this memory (bytes/s)
system.mem_ctrl.bw_total::.cpu.data          41267566                       # Total bandwidth to/from this memory (bytes/s)
system.mem_ctrl.bw_total::total             181187975                       # Total bandwidth to/from this memory (bytes/s)
system.mem_ctrl.avgPriority_.cpu.inst::samples      1797.00                       # Average QoS priority value for accepted requests
system.mem_ctrl.avgPriority_.cpu.data::samples       530.00                       # Average QoS priority value for accepted requests
system.mem_ctrl.priorityMinLatency       0.000000018750                       # per QoS priority minimum request to response latency (s)
system.mem_ctrl.priorityMaxLatency       0.000001104750                       # per QoS priority maximum request to response latency (s)
system.mem_ctrl.numReadWriteTurnArounds             0                       # Number of turnarounds from READ to WRITE
system.mem_ctrl.numWriteReadTurnArounds             0                       # Number of turnarounds from WRITE to READ
system.mem_ctrl.numStayReadState                 4725                       # Number of times bus staying in READ state
system.mem_ctrl.numStayWriteState                   0                       # Number of times bus staying in WRITE state
system.mem_ctrl.readReqs                         2327                       # Number of read requests accepted
system.mem_ctrl.writeReqs                           0                       # Number of write requests accepted
system.mem_ctrl.readBursts                       2327                       # Number of DRAM read bursts, including those serviced by the write queue
system.mem_ctrl.writeBursts                         0                       # Number of DRAM write bursts, including those merged in the write queue
system.mem_ctrl.bytesReadDRAM                  148928                       # Total number of bytes read from DRAM
system.mem_ctrl.bytesReadWrQ                        0                       # Total number of bytes read from write queue
system.mem_ctrl.bytesWritten                        0                       # Total number of bytes written to DRAM
system.mem_ctrl.bytesReadSys                   148928                       # Total read bytes from the system interface side
system.mem_ctrl.bytesWrittenSys                     0                       # Total written bytes from the system interface side
system.mem_ctrl.servicedByWrQ                       0                       # Number of DRAM read bursts serviced by the write queue
system.mem_ctrl.mergedWrBursts                      0                       # Number of DRAM write bursts merged with an existing one
system.mem_ctrl.neitherReadNorWriteReqs             0                       # Number of requests that are neither read nor write
system.mem_ctrl.perBankRdBursts::0                 66                       # Per bank write bursts
system.mem_ctrl.perBankRdBursts::1                234                       # Per bank write bursts
system.mem_ctrl.perBankRdBursts::2                260                       # Per bank write bursts
system.mem_ctrl.perBankRdBursts::3                273                       # Per bank write bursts
system.mem_ctrl.perBankRdBursts::4                187                       # Per bank write bursts
system.mem_ctrl.perBankRdBursts::5                166                       # Per bank write bursts
system.mem_ctrl.perBankRdBursts::6                122                       # Per bank write bursts
system.mem_ctrl.perBankRdBursts::7                160                       # Per bank write bursts
system.mem_ctrl.perBankRdBursts::8                147                       # Per bank write bursts
system.mem_ctrl.perBankRdBursts::9                112                       # Per bank write bursts
system.mem_ctrl.perBankRdBursts::10               136                       # Per bank write bursts
system.mem_ctrl.perBankRdBursts::11                93                       # Per bank write bursts
system.mem_ctrl.perBankRdBursts::12               159                       # Per bank write bursts
system.mem_ctrl.perBankRdBursts::13               125                       # Per bank write bursts
system.mem_ctrl.perBankRdBursts::14                22                       # Per bank write bursts
system.mem_ctrl.perBankRdBursts::15                65                       # Per bank write bursts
system.mem_ctrl.perBankWrBursts::0                  0                       # Per bank write bursts
system.mem_ctrl.perBankWrBursts::1                  0                       # Per bank write bursts
system.mem_ctrl.perBankWrBursts::2                  0                       # Per bank write bursts
system.mem_ctrl.perBankWrBursts::3                  0                       # Per bank write bursts
system.mem_ctrl.perBankWrBursts::4                  0                       # Per bank write bursts
system.mem_ctrl.perBankWrBursts::5                  0                       # Per bank write bursts
system.mem_ctrl.perBankWrBursts::6                  0                       # Per bank write bursts
system.mem_ctrl.perBankWrBursts::7                  0                       # Per bank write bursts
system.mem_ctrl.perBankWrBursts::8                  0                       # Per bank write bursts
system.mem_ctrl.perBankWrBursts::9                  0                       # Per bank write bursts
system.mem_ctrl.perBankWrBursts::10                 0                       # Per bank write bursts
system.mem_ctrl.perBankWrBursts::11                 0                       # Per bank write bursts
system.mem_ctrl.perBankWrBursts::12                 0                       # Per bank write bursts
system.mem_ctrl.perBankWrBursts::13                 0                       # Per bank write bursts
system.mem_ctrl.perBankWrBursts::14                 0                       # Per bank write bursts
system.mem_ctrl.perBankWrBursts::15                 0                       # Per bank write bursts
system.mem_ctrl.numRdRetry                          0                       # Number of times read queue was full causing retry
system.mem_ctrl.numWrRetry                          0                       # Number of times write queue was full causing retry
system.mem_ctrl.totGap                      821860000                       # Total gap between requests
system.mem_ctrl.readPktSize::0                      0                       # Read request sizes (log2)
system.mem_ctrl.readPktSize::1                      0                       # Read request sizes (log2)
system.mem_ctrl.readPktSize::2                      0                       # Read request sizes (log2)
system.mem_ctrl.readPktSize::3                      0                       # Read request sizes (log2)
system.mem_ctrl.readPktSize::4                      0                       # Read request sizes (log2)
system.mem_ctrl.readPktSize::5                      0                       # Read request sizes (log2)
system.mem_ctrl.readPktSize::6                   2327                       # Read request sizes (log2)
system.mem_ctrl.writePktSize::0                     0                       # Write request sizes (log2)
system.mem_ctrl.writePktSize::1                     0                       # Write request sizes (log2)
system.mem_ctrl.writePktSize::2                     0                       # Write request sizes (log2)
system.mem_ctrl.writePktSize::3                     0                       # Write request sizes (log2)
system.mem_ctrl.writePktSize::4                     0                       # Write request sizes (log2)
system.mem_ctrl.writePktSize::5                     0                       # Write request sizes (log2)
system.mem_ctrl.writePktSize::6                     0                       # Write request sizes (log2)
system.mem_ctrl.rdQLenPdf::0                     1661                       # What read queue length does an incoming req see
system.mem_ctrl.rdQLenPdf::1                      549                       # What read queue length does an incoming req see
system.mem_ctrl.rdQLenPdf::2                       97                       # What read queue length does an incoming req see
system.mem_ctrl.rdQLenPdf::3                       16                       # What read queue length does an incoming req see
system.mem_ctrl.rdQLenPdf::4                        4                       # What read queue length does an incoming req see
system.mem_ctrl.rdQLenPdf::5                        0                       # What read queue length does an incoming req see
system.mem_ctrl.rdQLenPdf::6                        0                       # What read queue length does an incoming req see
system.mem_ctrl.rdQLenPdf::7                        0                       # What read queue length does an incoming req see
system.mem_ctrl.rdQLenPdf::8                        0                       # What read queue length does an incoming req see
system.mem_ctrl.rdQLenPdf::9                        0                       # What read queue length does an incoming req see
system.mem_ctrl.rdQLenPdf::10                       0                       # What read queue length does an incoming req see
system.mem_ctrl.rdQLenPdf::11                       0                       # What read queue length does an incoming req see
system.mem_ctrl.rdQLenPdf::12                       0                       # What read queue length does an incoming req see
system.mem_ctrl.rdQLenPdf::13                       0                       # What read queue length does an incoming req see
system.mem_ctrl.rdQLenPdf::14                       0                       # What read queue length does an incoming req see
system.mem_ctrl.rdQLenPdf::15                       0                       # What read queue length does an incoming req see
system.mem_ctrl.rdQLenPdf::16                       0                       # What read queue length does an incoming req see
system.mem_ctrl.rdQLenPdf::17                       0                       # What read queue length does an incoming req see
system.mem_ctrl.rdQLenPdf::18                       0                       # What read queue length does an incoming req see
system.mem_ctrl.rdQLenPdf::19                       0                       # What read queue length does an incoming req see
system.mem_ctrl.rdQLenPdf::20                       0                       # What read queue length does an incoming req see
system.mem_ctrl.rdQLenPdf::21                       0                       # What read queue length does an incoming req see
system.mem_ctrl.rdQLenPdf::22                       0                       # What read queue length does an incoming req see
system.mem_ctrl.rdQLenPdf::23                       0                       # What read queue length does an incoming req see
system.mem_ctrl.rdQLenPdf::24                       0                       # What read queue length does an incoming req see
system.mem_ctrl.rdQLenPdf::25                       0                       # What read queue length does an incoming req see
system.mem_ctrl.rdQLenPdf::26                       0                       # What read queue length does an incoming req see
system.mem_ctrl.rdQLenPdf::27                       0                       # What read queue length does an incoming req see
system.mem_ctrl.rdQLenPdf::28                       0                       # What read queue length does an incoming req see
system.mem_ctrl.rdQLenPdf::29                       0                       # What read queue length does an incoming req see
system.mem_ctrl.rdQLenPdf::30                       0                       # What read queue length does an incoming req see
system.mem_ctrl.rdQLenPdf::31                       0                       # What read queue length does an incoming req see
system.mem_ctrl.wrQLenPdf::0                        0                       # What write queue length does an incoming req see
system.mem_ctrl.wrQLenPdf::1                        0                       # What write queue length does an incoming req see
system.mem_ctrl.wrQLenPdf::2                        0                       # What write queue length does an incoming req see
system.mem_ctrl.wrQLenPdf::3                        0                       # What write queue length does an incoming req see
system.mem_ctrl.wrQLenPdf::4                        0                       # What write queue length does an incoming req see
system.mem_ctrl.wrQLenPdf::5                        0                       # What write queue length does an incoming req see
system.mem_ctrl.wrQLenPdf::6                        0                       # What write queue length does an incoming req see
system.mem_ctrl.wrQLenPdf::7                        0                       # What write queue length does an incoming req see
system.mem_ctrl.wrQLenPdf::8                        0                       # What write queue length does an incoming req see
system.mem_ctrl.wrQLenPdf::9                        0                       # What write queue length does an incoming req see
system.mem_ctrl.wrQLenPdf::10                       0                       # What write queue length does an incoming req see
system.mem_ctrl.wrQLenPdf::11                       0                       # What write queue length does an incoming req see
system.mem_ctrl.wrQLenPdf::12                       0                       # What write queue length does an incoming req see
system.mem_ctrl.wrQLenPdf::13                       0                       # What write queue length does an incoming req see
system.mem_ctrl.wrQLenPdf::14                       0                       # What write queue length does an incoming req see
system.mem_ctrl.wrQLenPdf::15                       0                       # What write queue length does an incoming req see
system.mem_ctrl.wrQLenPdf::16                       0                       # What write queue length does an incoming req see
system.mem_ctrl.wrQLenPdf::17                       0                       # What write queue length does an incoming req see
system.mem_ctrl.wrQLenPdf::18                       0                       # What write queue length does an incoming req see
system.mem_ctrl.wrQLenPdf::19                       0                       # What write queue length does an incoming req see
system.mem_ctrl.wrQLenPdf::20                       0                       # What write queue length does an incoming req see
system.mem_ctrl.wrQLenPdf::21                       0                       # What write queue length does an incoming req see
system.mem_ctrl.wrQLenPdf::22                       0                       # What write queue length does an incoming req see
system.mem_ctrl.wrQLenPdf::23                       0                       # What write queue length does an incoming req see
system.mem_ctrl.wrQLenPdf::24                       0                       # What write queue length does an incoming req see
system.mem_ctrl.wrQLenPdf::25                       0                       # What write queue length does an incoming req see
system.mem_ctrl.wrQLenPdf::26                       0                       # What write queue length does an incoming req see
system.mem_ctrl.wrQLenPdf::27                       0                       # What write queue length does an incoming req see
system.mem_ctrl.wrQLenPdf::28                       0                       # What write queue length does an incoming req see
system.mem_ctrl.wrQLenPdf::29                       0                       # What write queue length does an incoming req see
system.mem_ctrl.wrQLenPdf::30                       0                       # What write queue length does an incoming req see
system.mem_ctrl.wrQLenPdf::31                       0                       # What write queue length does an incoming req see
system.mem_ctrl.wrQLenPdf::32                       0                       # What write queue length does an incoming req see
system.mem_ctrl.wrQLenPdf::33                       0                       # What write queue length does an incoming req see
system.mem_ctrl.wrQLenPdf::34                       0                       # What write queue length does an incoming req see
system.mem_ctrl.wrQLenPdf::35                       0                       # What write queue length does an incoming req see
system.mem_ctrl.wrQLenPdf::36                       0                       # What write queue length does an incoming req see
system.mem_ctrl.wrQLenPdf::37                       0                       # What write queue length does an incoming req see
system.mem_ctrl.wrQLenPdf::38                       0                       # What write queue length does an incoming req see
system.mem_ctrl.wrQLenPdf::39                       0                       # What write queue length does an incoming req see
system.mem_ctrl.wrQLenPdf::40                       0                       # What write queue length does an incoming req see
system.mem_ctrl.wrQLenPdf::41                       0                       # What write queue length does an incoming req see
system.mem_ctrl.wrQLenPdf::42                       0                       # What write queue length does an incoming req see
system.mem_ctrl.wrQLenPdf::43                       0                       # What write queue length does an incoming req see
system.mem_ctrl.wrQLenPdf::44                       0                       # What write queue length does an incoming req see
system.mem_ctrl.wrQLenPdf::45                       0                       # What write queue length does an incoming req see
system.mem_ctrl.wrQLenPdf::46                       0                       # What write queue length does an incoming req see
system.mem_ctrl.wrQLenPdf::47                       0                       # What write queue length does an incoming req see
system.mem_ctrl.wrQLenPdf::48                       0                       # What write queue length does an incoming req see
system.mem_ctrl.wrQLenPdf::49                       0                       # What write queue length does an incoming req see
system.mem_ctrl.wrQLenPdf::50                       0                       # What write queue length does an incoming req see
system.mem_ctrl.wrQLenPdf::51                       0                       # What write queue length does an incoming req see
system.mem_ctrl.wrQLenPdf::52                       0                       # What write queue length does an incoming req see
system.mem_ctrl.wrQLenPdf::53                       0                       # What write queue length does an incoming req see
system.mem_ctrl.wrQLenPdf::54                       0                       # What write queue length does an incoming req see
system.mem_ctrl.wrQLenPdf::55                       0                       # What write queue length does an incoming req see
system.mem_ctrl.wrQLenPdf::56                       0                       # What write queue length does an incoming req see
system.mem_ctrl.wrQLenPdf::57                       0                       # What write queue length does an incoming req see
system.mem_ctrl.wrQLenPdf::58                       0                       # What write queue length does an incoming req see
system.mem_ctrl.wrQLenPdf::59                       0                       # What write queue length does an incoming req see
system.mem_ctrl.wrQLenPdf::60                       0                       # What write queue length does an incoming req see
system.mem_ctrl.wrQLenPdf::61                       0                       # What write queue length does an incoming req see
system.mem_ctrl.wrQLenPdf::62                       0                       # What write queue length does an incoming req see
system.mem_ctrl.wrQLenPdf::63                       0                       # What write queue length does an incoming req see
system.mem_ctrl.bytesPerActivate::samples          547                       # Bytes accessed per row activation
system.mem_ctrl.bytesPerActivate::mean     269.221207                       # Bytes accessed per row activation
system.mem_ctrl.bytesPerActivate::gmean    168.865628                       # Bytes accessed per row activation
system.mem_ctrl.bytesPerActivate::stdev    280.787590                       # Bytes accessed per row activation
system.mem_ctrl.bytesPerActivate::0-127           207     37.84%     37.84% # Bytes accessed per row activation
system.mem_ctrl.bytesPerActivate::128-255          143     26.14%     63.99% # Bytes accessed per row activation
system.mem_ctrl.bytesPerActivate::256-383           61     11.15%     75.14% # Bytes accessed per row activation
system.mem_ctrl.bytesPerActivate::384-511           34      6.22%     81.35% # Bytes accessed per row activation
system.mem_ctrl.bytesPerActivate::512-639           28      5.12%     86.47% # Bytes accessed per row activation
system.mem_ctrl.bytesPerActivate::640-767           19      3.47%     89.95% # Bytes accessed per row activation
system.mem_ctrl.bytesPerActivate::768-895           12      2.19%     92.14% # Bytes accessed per row activation
system.mem_ctrl.bytesPerActivate::896-1023           10      1.83%     93.97% # Bytes accessed per row activation
system.mem_ctrl.bytesPerActivate::1024-1151           33      6.03%    100.00% # Bytes accessed per row activation
system.mem_ctrl.bytesPerActivate::total           547                       # Bytes accessed per row activation
system.mem_ctrl.masterReadBytes::.cpu.inst       115008                       # Per-master bytes read from memory
system.mem_ctrl.masterReadBytes::.cpu.data        33920                       # Per-master bytes read from memory
system.mem_ctrl.masterReadRate::.cpu.inst 139920409.074484795332                       # Per-master bytes read from memory rate (Bytes/sec)
system.mem_ctrl.masterReadRate::.cpu.data 41267566.393698908389                       # Per-master bytes read from memory rate (Bytes/sec)
system.mem_ctrl.masterReadAccesses::.cpu.inst         1797                       # Per-master read serviced memory accesses
system.mem_ctrl.masterReadAccesses::.cpu.data          530                       # Per-master read serviced memory accesses
system.mem_ctrl.masterReadTotalLat::.cpu.inst     62849000                       # Per-master read total memory access latency
system.mem_ctrl.masterReadTotalLat::.cpu.data     27258250                       # Per-master read total memory access latency
system.mem_ctrl.masterReadAvgLat::.cpu.inst     34974.40                       # Per-master read average memory access latency
system.mem_ctrl.masterReadAvgLat::.cpu.data     51430.66                       # Per-master read average memory access latency
system.mem_ctrl.totQLat                      46476000                       # Total ticks spent queuing
system.mem_ctrl.totMemAccLat                 90107250                       # Total ticks spent from burst creation until serviced by the DRAM
system.mem_ctrl.totBusLat                    11635000                       # Total ticks spent in databus transfers
system.mem_ctrl.avgQLat                      19972.50                       # Average queueing delay per DRAM burst
system.mem_ctrl.avgBusLat                     5000.00                       # Average bus latency per DRAM burst
system.mem_ctrl.avgMemAccLat                 38722.50                       # Average memory access latency per DRAM burst
system.mem_ctrl.avgRdBW                        181.19                       # Average DRAM read bandwidth in MiByte/s
system.mem_ctrl.avgWrBW                          0.00                       # Average achieved write bandwidth in MiByte/s
system.mem_ctrl.avgRdBWSys                     181.19                       # Average system read bandwidth in MiByte/s
system.mem_ctrl.avgWrBWSys                       0.00                       # Average system write bandwidth in MiByte/s
system.mem_ctrl.peakBW                       12800.00                       # Theoretical peak bandwidth in MiByte/s
system.mem_ctrl.busUtil                          1.42                       # Data bus utilization in percentage
system.mem_ctrl.busUtilRead                      1.42                       # Data bus utilization in percentage for reads
system.mem_ctrl.busUtilWrite                     0.00                       # Data bus utilization in percentage for writes
system.mem_ctrl.avgRdQLen                        1.12                       # Average read queue length when enqueuing
system.mem_ctrl.avgWrQLen                        0.00                       # Average write queue length when enqueuing
system.mem_ctrl.readRowHits                      1773                       # Number of row buffer hits during reads
system.mem_ctrl.writeRowHits                        0                       # Number of row buffer hits during writes
system.mem_ctrl.readRowHitRate                  76.19                       # Row buffer hit rate for reads
system.mem_ctrl.writeRowHitRate                   nan                       # Row buffer hit rate for writes
system.mem_ctrl.avgGap                      353184.36                       # Average gap between requests
system.mem_ctrl.pageHitRate                     76.19                       # Row buffer hit rate, read and write combined
system.mem_ctrl_0.actEnergy                   2406180                       # Energy for activate commands per rank (pJ)
system.mem_ctrl_0.preEnergy                   1259940                       # Energy for precharge commands per rank (pJ)
system.mem_ctrl_0.readEnergy                 10481520                       # Energy for read commands per rank (pJ)
system.mem_ctrl_0.writeEnergy                       0                       # Energy for write commands per rank (pJ)
system.mem_ctrl_0.refreshEnergy          29502720.000000                       # Energy for refresh commands per rank (pJ)
system.mem_ctrl_0.actBackEnergy              22876950                       # Energy for active background per rank (pJ)
system.mem_ctrl_0.preBackEnergy               1424640                       # Energy for precharge background per rank (pJ)
system.mem_ctrl_0.actPowerDownEnergy        112568730                       # Energy for active power-down per rank (pJ)
system.mem_ctrl_0.prePowerDownEnergy         29944320                       # Energy for precharge power-down per rank (pJ)
system.mem_ctrl_0.selfRefreshEnergy         110794020                       # Energy for self refresh per rank (pJ)
system.mem_ctrl_0.totalEnergy               321259020                       # Total energy per rank (pJ)
system.mem_ctrl_0.averagePower             390.848406                       # Core power per rank (mW)
system.mem_ctrl_0.totalIdleTime             767825750                       # Total Idle time Per DRAM Rank
system.mem_ctrl_0.memoryStateTime::IDLE       2454500                       # Time in different power states
system.mem_ctrl_0.memoryStateTime::REF       12480000                       # Time in different power states
system.mem_ctrl_0.memoryStateTime::SREF     443233250                       # Time in different power states
system.mem_ctrl_0.memoryStateTime::PRE_PDN     77976500                       # Time in different power states
system.mem_ctrl_0.memoryStateTime::ACT       38926000                       # Time in different power states
system.mem_ctrl_0.memoryStateTime::ACT_PDN    246882750                       # Time in different power states
system.mem_ctrl_1.actEnergy                   1549380                       # Energy for activate commands per rank (pJ)
system.mem_ctrl_1.preEnergy                    815925                       # Energy for precharge commands per rank (pJ)
system.mem_ctrl_1.readEnergy                  6133260                       # Energy for read commands per rank (pJ)
system.mem_ctrl_1.writeEnergy                       0                       # Energy for write commands per rank (pJ)
system.mem_ctrl_1.refreshEnergy          49171200.000000                       # Energy for refresh commands per rank (pJ)
system.mem_ctrl_1.actBackEnergy              19721430                       # Energy for active background per rank (pJ)
system.mem_ctrl_1.preBackEnergy               3047040                       # Energy for precharge background per rank (pJ)
system.mem_ctrl_1.actPowerDownEnergy        153612720                       # Energy for active power-down per rank (pJ)
system.mem_ctrl_1.prePowerDownEnergy         93435840                       # Energy for precharge power-down per rank (pJ)
system.mem_ctrl_1.selfRefreshEnergy          56231160                       # Energy for self refresh per rank (pJ)
system.mem_ctrl_1.totalEnergy               383789925                       # Total energy per rank (pJ)
system.mem_ctrl_1.averagePower             466.924417                       # Core power per rank (mW)
system.mem_ctrl_1.totalIdleTime             770567500                       # Total Idle time Per DRAM Rank
system.mem_ctrl_1.memoryStateTime::IDLE       6029000                       # Time in different power states
system.mem_ctrl_1.memoryStateTime::REF       20800000                       # Time in different power states
system.mem_ctrl_1.memoryStateTime::SREF     190419750                       # Time in different power states
system.mem_ctrl_1.memoryStateTime::PRE_PDN    243317500                       # Time in different power states
system.mem_ctrl_1.memoryStateTime::ACT       24506750                       # Time in different power states
system.mem_ctrl_1.memoryStateTime::ACT_PDN    336880000                       # Time in different power states
system.pwrStateResidencyTicks::UNDEFINED    821953000                       # Cumulative time (in ticks) in various power states
system.cpu.branchPred.lookups                  232545                       # Number of BP lookups
system.cpu.branchPred.condPredicted            232545                       # Number of conditional branches predicted
system.cpu.branchPred.condIncorrect             35667                       # Number of conditional branches incorrect
system.cpu.branchPred.BTBLookups               120124                       # Number of BTB lookups
system.cpu.branchPred.BTBHits                       0                       # Number of BTB hits
system.cpu.branchPred.BTBCorrect                    0                       # Number of correct BTB predictions (this stat may not work properly.
system.cpu.branchPred.BTBHitPct              0.000000                       # BTB Hit Percentage
system.cpu.branchPred.usedRAS                   86995                       # Number of times the RAS was used to get a target.
system.cpu.branchPred.RASInCorrect              15374                       # Number of incorrect RAS predictions.
system.cpu.branchPred.indirectLookups          120124                       # Number of indirect predictor lookups.
system.cpu.branchPred.indirectHits              42906                       # Number of indirect target hits.
system.cpu.branchPred.indirectMisses            77218                       # Number of indirect misses.
system.cpu.branchPredindirectMispredicted        16862                       # Number of mispredicted indirect branches.
system.cpu.dtb.walker.pwrStateResidencyTicks::UNDEFINED    821953000                       # Cumulative time (in ticks) in various power states
system.cpu.dtb.rdAccesses                      232342                       # TLB accesses on read requests
system.cpu.dtb.wrAccesses                      175173                       # TLB accesses on write requests
system.cpu.dtb.rdMisses                          1299                       # TLB misses on read requests
system.cpu.dtb.wrMisses                           226                       # TLB misses on write requests
system.cpu.apic_clk_domain.clock                 8000                       # Clock period in ticks
system.cpu.interrupts.pwrStateResidencyTicks::UNDEFINED    821953000                       # Cumulative time (in ticks) in various power states
system.cpu.itb.walker.pwrStateResidencyTicks::UNDEFINED    821953000                       # Cumulative time (in ticks) in various power states
system.cpu.itb.rdAccesses                           0                       # TLB accesses on read requests
system.cpu.itb.wrAccesses                      205476                       # TLB accesses on write requests
system.cpu.itb.rdMisses                             0                       # TLB misses on read requests
system.cpu.itb.wrMisses                           297                       # TLB misses on write requests
system.cpu.workload.numSyscalls                    16                       # Number of system calls
system.cpu.pwrStateResidencyTicks::ON       821953000                       # Cumulative time (in ticks) in various power states
system.cpu.numCycles                          1643907                       # number of cpu cycles simulated
system.cpu.numWorkItemsStarted                      0                       # number of work items this cpu started
system.cpu.numWorkItemsCompleted                    0                       # number of work items this cpu completed
system.cpu.fetch.icacheStallCycles             159504                       # Number of cycles fetch is stalled on an Icache miss
system.cpu.fetch.Insts                        1166988                       # Number of instructions fetch has processed
system.cpu.fetch.Branches                      232545                       # Number of branches that fetch encountered
system.cpu.fetch.predictedBranches             129901                       # Number of branches that fetch has predicted taken
system.cpu.fetch.Cycles                       1365621                       # Number of cycles fetch has run and was not squashing or blocked
system.cpu.fetch.SquashCycles                   72156                       # Number of cycles fetch has spent squashing
system.cpu.fetch.MiscStallCycles                  153                       # Number of cycles fetch has spent waiting on interrupts, or bad addresses, or out of MSHRs
system.cpu.fetch.PendingTrapStallCycles          1693                       # Number of stall cycles due to pending traps
system.cpu.fetch.PendingQuiesceStallCycles           24                       # Number of stall cycles due to pending quiesce instructions
system.cpu.fetch.IcacheWaitRetryStallCycles           38                       # Number of stall cycles due to full MSHR
system.cpu.fetch.CacheLines                    205299                       # Number of cache lines fetched
system.cpu.fetch.IcacheSquashes                  1806                       # Number of outstanding Icache misses that were squashed
system.cpu.fetch.rateDist::samples            1563111                       # Number of instructions fetched each cycle (Total)
system.cpu.fetch.rateDist::mean              1.487272                       # Number of instructions fetched each cycle (Total)
system.cpu.fetch.rateDist::stdev             0.829020                       # Number of instructions fetched each cycle (Total)
system.cpu.fetch.rateDist::underflows               0      0.00%      0.00% # Number of instructions fetched each cycle (Total)
system.cpu.fetch.rateDist::0                   341880     21.87%     21.87% # Number of instructions fetched each cycle (Total)
system.cpu.fetch.rateDist::1                   117691      7.53%     29.40% # Number of instructions fetched each cycle (Total)
system.cpu.fetch.rateDist::2                  1103540     70.60%    100.00% # Number of instructions fetched each cycle (Total)
system.cpu.fetch.rateDist::overflows                0      0.00%    100.00% # Number of instructions fetched each cycle (Total)
system.cpu.fetch.rateDist::min_value                0                       # Number of instructions fetched each cycle (Total)
system.cpu.fetch.rateDist::max_value                2                       # Number of instructions fetched each cycle (Total)
system.cpu.fetch.rateDist::total              1563111                       # Number of instructions fetched each cycle (Total)
system.cpu.fetch.branchRate                  0.141459                       # Number of branch fetches per cycle
system.cpu.fetch.rate                        0.709887                       # Number of inst fetches per cycle
system.cpu.decode.IdleCycles                   251949                       # Number of cycles decode is idle
system.cpu.decode.BlockedCycles                153701                       # Number of cycles decode is blocked
system.cpu.decode.RunCycles                   1052389                       # Number of cycles decode is running
system.cpu.decode.UnblockCycles                 68994                       # Number of cycles decode is unblocking
system.cpu.decode.SquashCycles                  36078                       # Number of cycles decode is squashing
system.cpu.decode.DecodedInsts                2059438                       # Number of instructions handled by decode
system.cpu.decode.SquashedInsts                123857                       # Number of squashed instructions handled by decode
system.cpu.rename.SquashCycles                  36078                       # Number of cycles rename is squashing
system.cpu.rename.IdleCycles                   385350                       # Number of cycles rename is idle
system.cpu.rename.BlockCycles                   37295                       # Number of cycles rename is blocking
system.cpu.rename.serializeStallCycles           1570                       # count of cycles rename stalled for serializing inst
system.cpu.rename.RunCycles                    985866                       # Number of cycles rename is running
system.cpu.rename.UnblockCycles                116952                       # Number of cycles rename is unblocking
system.cpu.rename.RenamedInsts                1931997                       # Number of instructions processed by rename
system.cpu.rename.SquashedInsts                 62299                       # Number of squashed instructions processed by rename
system.cpu.rename.ROBFullEvents                    46                       # Number of times rename has blocked due to ROB full
system.cpu.rename.IQFullEvents                  44840                       # Number of times rename has blocked due to IQ full
system.cpu.rename.LQFullEvents                      4                       # Number of times rename has blocked due to LQ full
system.cpu.rename.SQFullEvents                  42789                       # Number of times rename has blocked due to SQ full
system.cpu.rename.FullRegisterEvents              377                       # Number of times there has been no free registers
system.cpu.rename.RenamedOperands             1770982                       # Number of destination operands rename has renamed
system.cpu.rename.RenameLookups               4581445                       # Number of register rename lookups that rename has made
system.cpu.rename.int_rename_lookups          3352812                       # Number of integer rename lookups
system.cpu.rename.fp_rename_lookups              3958                       # Number of floating rename lookups
system.cpu.rename.CommittedMaps               1050245                       # Number of HB maps that are committed
system.cpu.rename.UndoneMaps                   720737                       # Number of HB maps that are undone due to squashing
system.cpu.rename.serializingInsts                 32                       # count of serializing insts renamed
system.cpu.rename.tempSerializingInsts             29                       # count of temporary serializing insts renamed
system.cpu.rename.skidInsts                     99767                       # count of insts added to the skid buffer
system.cpu.memDep0.insertedLoads               332342                       # Number of loads inserted to the mem dependence unit.
system.cpu.memDep0.insertedStores              210837                       # Number of stores inserted to the mem dependence unit.
system.cpu.memDep0.conflictingLoads             28523                       # Number of conflicting loads.
system.cpu.memDep0.conflictingStores            10032                       # Number of conflicting stores.
system.cpu.iq.iqInstsAdded                    1805682                       # Number of instructions added to the IQ (excludes non-spec)
system.cpu.iq.iqNonSpecInstsAdded                 678                       # Number of non-speculative instructions added to the IQ
system.cpu.iq.iqInstsIssued                   1390790                       # Number of instructions issued
system.cpu.iq.iqSquashedInstsIssued             75796                       # Number of squashed instructions issued
system.cpu.iq.iqSquashedInstsExamined          642555                       # Number of squashed instructions iterated over during squash; mainly for profiling
system.cpu.iq.iqSquashedOperandsExamined      1118820                       # Number of squashed operands that are examined and possibly removed from graph
system.cpu.iq.iqSquashedNonSpecRemoved            662                       # Number of squashed non-spec instructions that were removed
system.cpu.iq.issued_per_cycle::samples       1563111                       # Number of insts issued each cycle
system.cpu.iq.issued_per_cycle::mean         0.889758                       # Number of insts issued each cycle
system.cpu.iq.issued_per_cycle::stdev        0.767148                       # Number of insts issued each cycle
system.cpu.iq.issued_per_cycle::underflows            0      0.00%      0.00% # Number of insts issued each cycle
system.cpu.iq.issued_per_cycle::0              555617     35.55%     35.55% # Number of insts issued each cycle
system.cpu.iq.issued_per_cycle::1              624198     39.93%     75.48% # Number of insts issued each cycle
system.cpu.iq.issued_per_cycle::2              383296     24.52%    100.00% # Number of insts issued each cycle
system.cpu.iq.issued_per_cycle::overflows            0      0.00%    100.00% # Number of insts issued each cycle
system.cpu.iq.issued_per_cycle::min_value            0                       # Number of insts issued each cycle
system.cpu.iq.issued_per_cycle::max_value            2                       # Number of insts issued each cycle
system.cpu.iq.issued_per_cycle::total         1563111                       # Number of insts issued each cycle
system.cpu.iq.fu_full::No_OpClass                   0      0.00%      0.00% # attempts to use FU when none available
system.cpu.iq.fu_full::IntAlu                  441540     80.80%     80.80% # attempts to use FU when none available
system.cpu.iq.fu_full::IntMult                      0      0.00%     80.80% # attempts to use FU when none available
system.cpu.iq.fu_full::IntDiv                       0      0.00%     80.80% # attempts to use FU when none available
system.cpu.iq.fu_full::FloatAdd                     0      0.00%     80.80% # attempts to use FU when none available
system.cpu.iq.fu_full::FloatCmp                     0      0.00%     80.80% # attempts to use FU when none available
system.cpu.iq.fu_full::FloatCvt                     0      0.00%     80.80% # attempts to use FU when none available
system.cpu.iq.fu_full::FloatMult                    0      0.00%     80.80% # attempts to use FU when none available
system.cpu.iq.fu_full::FloatMultAcc                 0      0.00%     80.80% # attempts to use FU when none available
system.cpu.iq.fu_full::FloatDiv                     0      0.00%     80.80% # attempts to use FU when none available
system.cpu.iq.fu_full::FloatMisc                    0      0.00%     80.80% # attempts to use FU when none available
system.cpu.iq.fu_full::FloatSqrt                    0      0.00%     80.80% # attempts to use FU when none available
system.cpu.iq.fu_full::SimdAdd                      0      0.00%     80.80% # attempts to use FU when none available
system.cpu.iq.fu_full::SimdAddAcc                   0      0.00%     80.80% # attempts to use FU when none available
system.cpu.iq.fu_full::SimdAlu                    225      0.04%     80.85% # attempts to use FU when none available
system.cpu.iq.fu_full::SimdCmp                      0      0.00%     80.85% # attempts to use FU when none available
system.cpu.iq.fu_full::SimdCvt                     19      0.00%     80.85% # attempts to use FU when none available
system.cpu.iq.fu_full::SimdMisc                    21      0.00%     80.85% # attempts to use FU when none available
system.cpu.iq.fu_full::SimdMult                     0      0.00%     80.85% # attempts to use FU when none available
system.cpu.iq.fu_full::SimdMultAcc                  0      0.00%     80.85% # attempts to use FU when none available
system.cpu.iq.fu_full::SimdShift                    0      0.00%     80.85% # attempts to use FU when none available
system.cpu.iq.fu_full::SimdShiftAcc                 0      0.00%     80.85% # attempts to use FU when none available
system.cpu.iq.fu_full::SimdSqrt                     0      0.00%     80.85% # attempts to use FU when none available
system.cpu.iq.fu_full::SimdFloatAdd                 0      0.00%     80.85% # attempts to use FU when none available
system.cpu.iq.fu_full::SimdFloatAlu                 0      0.00%     80.85% # attempts to use FU when none available
system.cpu.iq.fu_full::SimdFloatCmp                 0      0.00%     80.85% # attempts to use FU when none available
system.cpu.iq.fu_full::SimdFloatCvt                 0      0.00%     80.85% # attempts to use FU when none available
system.cpu.iq.fu_full::SimdFloatDiv                 0      0.00%     80.85% # attempts to use FU when none available
system.cpu.iq.fu_full::SimdFloatMisc                0      0.00%     80.85% # attempts to use FU when none available
system.cpu.iq.fu_full::SimdFloatMult                0      0.00%     80.85% # attempts to use FU when none available
system.cpu.iq.fu_full::SimdFloatMultAcc             0      0.00%     80.85% # attempts to use FU when none available
system.cpu.iq.fu_full::SimdFloatSqrt                0      0.00%     80.85% # attempts to use FU when none available
system.cpu.iq.fu_full::SimdAes                      0      0.00%     80.85% # attempts to use FU when none available
system.cpu.iq.fu_full::SimdAesMix                   0      0.00%     80.85% # attempts to use FU when none available
system.cpu.iq.fu_full::SimdSha1Hash                 0      0.00%     80.85% # attempts to use FU when none available
system.cpu.iq.fu_full::SimdSha1Hash2                0      0.00%     80.85% # attempts to use FU when none available
system.cpu.iq.fu_full::SimdSha256Hash               0      0.00%     80.85% # attempts to use FU when none available
system.cpu.iq.fu_full::SimdSha256Hash2              0      0.00%     80.85% # attempts to use FU when none available
system.cpu.iq.fu_full::SimdShaSigma2                0      0.00%     80.85% # attempts to use FU when none available
system.cpu.iq.fu_full::SimdShaSigma3                0      0.00%     80.85% # attempts to use FU when none available
system.cpu.iq.fu_full::MemRead                  75261     13.77%     94.63% # attempts to use FU when none available
system.cpu.iq.fu_full::MemWrite                 29366      5.37%    100.00% # attempts to use FU when none available
system.cpu.iq.fu_full::FloatMemRead                 0      0.00%    100.00% # attempts to use FU when none available
system.cpu.iq.fu_full::FloatMemWrite                0      0.00%    100.00% # attempts to use FU when none available
system.cpu.iq.fu_full::IprAccess                    0      0.00%    100.00% # attempts to use FU when none available
system.cpu.iq.fu_full::InstPrefetch                 0      0.00%    100.00% # attempts to use FU when none available
system.cpu.iq.FU_type_0::No_OpClass              7727      0.56%      0.56% # Type of FU issued
system.cpu.iq.FU_type_0::IntAlu                948657     68.21%     68.77% # Type of FU issued
system.cpu.iq.FU_type_0::IntMult                  941      0.07%     68.83% # Type of FU issued
system.cpu.iq.FU_type_0::IntDiv                    57      0.00%     68.84% # Type of FU issued
system.cpu.iq.FU_type_0::FloatAdd                   2      0.00%     68.84% # Type of FU issued
system.cpu.iq.FU_type_0::FloatCmp                   0      0.00%     68.84% # Type of FU issued
system.cpu.iq.FU_type_0::FloatCvt                   0      0.00%     68.84% # Type of FU issued
system.cpu.iq.FU_type_0::FloatMult                  0      0.00%     68.84% # Type of FU issued
system.cpu.iq.FU_type_0::FloatMultAcc               0      0.00%     68.84% # Type of FU issued
system.cpu.iq.FU_type_0::FloatDiv                   0      0.00%     68.84% # Type of FU issued
system.cpu.iq.FU_type_0::FloatMisc                  0      0.00%     68.84% # Type of FU issued
system.cpu.iq.FU_type_0::FloatSqrt                  0      0.00%     68.84% # Type of FU issued
system.cpu.iq.FU_type_0::SimdAdd                   16      0.00%     68.84% # Type of FU issued
system.cpu.iq.FU_type_0::SimdAddAcc                 0      0.00%     68.84% # Type of FU issued
system.cpu.iq.FU_type_0::SimdAlu                  816      0.06%     68.90% # Type of FU issued
system.cpu.iq.FU_type_0::SimdCmp                    0      0.00%     68.90% # Type of FU issued
system.cpu.iq.FU_type_0::SimdCvt                  286      0.02%     68.92% # Type of FU issued
system.cpu.iq.FU_type_0::SimdMisc                 280      0.02%     68.94% # Type of FU issued
system.cpu.iq.FU_type_0::SimdMult                   0      0.00%     68.94% # Type of FU issued
system.cpu.iq.FU_type_0::SimdMultAcc                0      0.00%     68.94% # Type of FU issued
system.cpu.iq.FU_type_0::SimdShift                  0      0.00%     68.94% # Type of FU issued
system.cpu.iq.FU_type_0::SimdShiftAcc               0      0.00%     68.94% # Type of FU issued
system.cpu.iq.FU_type_0::SimdSqrt                   0      0.00%     68.94% # Type of FU issued
system.cpu.iq.FU_type_0::SimdFloatAdd               0      0.00%     68.94% # Type of FU issued
system.cpu.iq.FU_type_0::SimdFloatAlu               0      0.00%     68.94% # Type of FU issued
system.cpu.iq.FU_type_0::SimdFloatCmp               0      0.00%     68.94% # Type of FU issued
system.cpu.iq.FU_type_0::SimdFloatCvt               0      0.00%     68.94% # Type of FU issued
system.cpu.iq.FU_type_0::SimdFloatDiv               0      0.00%     68.94% # Type of FU issued
system.cpu.iq.FU_type_0::SimdFloatMisc              0      0.00%     68.94% # Type of FU issued
system.cpu.iq.FU_type_0::SimdFloatMult              0      0.00%     68.94% # Type of FU issued
system.cpu.iq.FU_type_0::SimdFloatMultAcc            0      0.00%     68.94% # Type of FU issued
system.cpu.iq.FU_type_0::SimdFloatSqrt              0      0.00%     68.94% # Type of FU issued
system.cpu.iq.FU_type_0::SimdAes                    0      0.00%     68.94% # Type of FU issued
system.cpu.iq.FU_type_0::SimdAesMix                 0      0.00%     68.94% # Type of FU issued
system.cpu.iq.FU_type_0::SimdSha1Hash               0      0.00%     68.94% # Type of FU issued
system.cpu.iq.FU_type_0::SimdSha1Hash2              0      0.00%     68.94% # Type of FU issued
system.cpu.iq.FU_type_0::SimdSha256Hash             0      0.00%     68.94% # Type of FU issued
system.cpu.iq.FU_type_0::SimdSha256Hash2            0      0.00%     68.94% # Type of FU issued
system.cpu.iq.FU_type_0::SimdShaSigma2              0      0.00%     68.94% # Type of FU issued
system.cpu.iq.FU_type_0::SimdShaSigma3              0      0.00%     68.94% # Type of FU issued
system.cpu.iq.FU_type_0::MemRead               251632     18.09%     87.03% # Type of FU issued
system.cpu.iq.FU_type_0::MemWrite              179025     12.87%     99.90% # Type of FU issued
system.cpu.iq.FU_type_0::FloatMemRead             906      0.07%     99.97% # Type of FU issued
system.cpu.iq.FU_type_0::FloatMemWrite            445      0.03%    100.00% # Type of FU issued
system.cpu.iq.FU_type_0::IprAccess                  0      0.00%    100.00% # Type of FU issued
system.cpu.iq.FU_type_0::InstPrefetch               0      0.00%    100.00% # Type of FU issued
system.cpu.iq.FU_type_0::total                1390790                       # Type of FU issued
system.cpu.iq.rate                           0.846027                       # Inst issue rate
system.cpu.iq.fu_busy_cnt                      546432                       # FU busy when requested
system.cpu.iq.fu_busy_rate                   0.392893                       # FU busy rate (busy events/executed inst)
system.cpu.iq.int_inst_queue_reads            4961016                       # Number of integer instruction queue reads
system.cpu.iq.int_inst_queue_writes           2444880                       # Number of integer instruction queue writes
system.cpu.iq.int_inst_queue_wakeup_accesses      1300893                       # Number of integer instruction queue wakeup accesses
system.cpu.iq.fp_inst_queue_reads                5903                       # Number of floating instruction queue reads
system.cpu.iq.fp_inst_queue_writes               4364                       # Number of floating instruction queue writes
system.cpu.iq.fp_inst_queue_wakeup_accesses         2464                       # Number of floating instruction queue wakeup accesses
system.cpu.iq.vec_inst_queue_reads                  0                       # Number of vector instruction queue reads
system.cpu.iq.vec_inst_queue_writes                 0                       # Number of vector instruction queue writes
system.cpu.iq.vec_inst_queue_wakeup_accesses            0                       # Number of vector instruction queue wakeup accesses
system.cpu.iq.int_alu_accesses                1926471                       # Number of integer alu accesses
system.cpu.iq.fp_alu_accesses                    3024                       # Number of floating point alu accesses
system.cpu.iq.vec_alu_accesses                      0                       # Number of vector alu accesses
system.cpu.iew.lsq.thread0.forwLoads            81151                       # Number of loads that had data forwarded from stores
system.cpu.iew.lsq.thread0.invAddrLoads             0                       # Number of loads ignored due to an invalid address
system.cpu.iew.lsq.thread0.squashedLoads       134219                       # Number of loads squashed
system.cpu.iew.lsq.thread0.ignoredResponses          437                       # Number of memory responses ignored because the instruction is squashed
system.cpu.iew.lsq.thread0.memOrderViolation          342                       # Number of memory ordering violations
system.cpu.iew.lsq.thread0.squashedStores        43057                       # Number of stores squashed
system.cpu.iew.lsq.thread0.invAddrSwpfs             0                       # Number of software prefetches ignored due to an invalid address
system.cpu.iew.lsq.thread0.blockedLoads             0                       # Number of blocked loads due to partial load-store forwarding
system.cpu.iew.lsq.thread0.rescheduledLoads           68                       # Number of loads that were rescheduled
system.cpu.iew.lsq.thread0.cacheBlocked            14                       # Number of times an access to memory failed due to the cache being blocked
system.cpu.iew.iewIdleCycles                        0                       # Number of cycles IEW is idle
system.cpu.iew.iewSquashCycles                  36078                       # Number of cycles IEW is squashing
system.cpu.iew.iewBlockCycles                   20305                       # Number of cycles IEW is blocking
system.cpu.iew.iewUnblockCycles                  4397                       # Number of cycles IEW is unblocking
system.cpu.iew.iewDispatchedInsts             1806360                       # Number of instructions dispatched to IQ
system.cpu.iew.iewDispSquashedInsts             35856                       # Number of squashed instructions skipped by dispatch
system.cpu.iew.iewDispLoadInsts                332342                       # Number of dispatched load instructions
system.cpu.iew.iewDispStoreInsts               210837                       # Number of dispatched store instructions
system.cpu.iew.iewDispNonSpecInsts                249                       # Number of dispatched non-speculative instructions
system.cpu.iew.iewIQFullEvents                     93                       # Number of times the IQ has become full, causing a stall
system.cpu.iew.iewLSQFullEvents                  4235                       # Number of times the LSQ has become full, causing a stall
system.cpu.iew.memOrderViolationEvents            342                       # Number of memory order violations
system.cpu.iew.predictedTakenIncorrect          15938                       # Number of branches that were predicted taken incorrectly
system.cpu.iew.predictedNotTakenIncorrect        21902                       # Number of branches that were predicted not taken incorrectly
system.cpu.iew.branchMispredicts                37840                       # Number of branch mispredicts detected at execute
system.cpu.iew.iewExecutedInsts               1314812                       # Number of executed instructions
system.cpu.iew.iewExecLoadInsts                232190                       # Number of load instructions executed
system.cpu.iew.iewExecSquashedInsts             75978                       # Number of squashed instructions skipped in execute
system.cpu.iew.exec_swp                             0                       # number of swp insts executed
system.cpu.iew.exec_nop                             0                       # number of nop insts executed
system.cpu.iew.exec_refs                       407319                       # number of memory reference insts executed
system.cpu.iew.exec_branches                   116447                       # Number of branches executed
system.cpu.iew.exec_stores                     175129                       # Number of stores executed
system.cpu.iew.exec_rate                     0.799809                       # Inst execution rate
system.cpu.iew.wb_sent                        1306456                       # cumulative count of insts sent to commit
system.cpu.iew.wb_count                       1303357                       # cumulative count of insts written-back
system.cpu.iew.wb_producers                    897186                       # num instructions producing a value
system.cpu.iew.wb_consumers                   1586572                       # num instructions consuming a value
system.cpu.iew.wb_rate                       0.792841                       # insts written-back per cycle
system.cpu.iew.wb_fanout                     0.565487                       # average fanout of values written-back
system.cpu.commit.commitSquashedInsts          579297                       # The number of squashed insts skipped by commit
system.cpu.commit.commitNonSpecStalls              16                       # The number of times commit has been forced to stall to communicate backwards
system.cpu.commit.branchMispredicts             35798                       # The number of times a branch was mispredicted
system.cpu.commit.committed_per_cycle::samples      1509372                       # Number of insts commited each cycle
system.cpu.commit.committed_per_cycle::mean     0.771052                       # Number of insts commited each cycle
system.cpu.commit.committed_per_cycle::stdev     0.877183                       # Number of insts commited each cycle
system.cpu.commit.committed_per_cycle::underflows            0      0.00%      0.00% # Number of insts commited each cycle
system.cpu.commit.committed_per_cycle::0       793036     52.54%     52.54% # Number of insts commited each cycle
system.cpu.commit.committed_per_cycle::1       268868     17.81%     70.35% # Number of insts commited each cycle
system.cpu.commit.committed_per_cycle::2       447468     29.65%    100.00% # Number of insts commited each cycle
system.cpu.commit.committed_per_cycle::overflows            0      0.00%    100.00% # Number of insts commited each cycle
system.cpu.commit.committed_per_cycle::min_value            0                       # Number of insts commited each cycle
system.cpu.commit.committed_per_cycle::max_value            2                       # Number of insts commited each cycle
system.cpu.commit.committed_per_cycle::total      1509372                       # Number of insts commited each cycle
system.cpu.commit.committedInsts               612636                       # Number of instructions committed
system.cpu.commit.committedOps                1163804                       # Number of ops (including micro ops) committed
system.cpu.commit.swp_count                         0                       # Number of s/w prefetches committed
system.cpu.commit.refs                         365903                       # Number of memory references committed
system.cpu.commit.loads                        198123                       # Number of loads committed
system.cpu.commit.membars                           0                       # Number of memory barriers committed
system.cpu.commit.branches                     111689                       # Number of branches committed
system.cpu.commit.vec_insts                         0                       # Number of committed Vector instructions.
system.cpu.commit.fp_insts                       2194                       # Number of committed floating point instructions.
system.cpu.commit.int_insts                   1152553                       # Number of committed integer instructions.
system.cpu.commit.function_calls                40011                       # Number of function calls committed.
system.cpu.commit.op_class_0::No_OpClass         3858      0.33%      0.33% # Class of committed instruction
system.cpu.commit.op_class_0::IntAlu           791780     68.03%     68.37% # Class of committed instruction
system.cpu.commit.op_class_0::IntMult             895      0.08%     68.44% # Class of committed instruction
system.cpu.commit.op_class_0::IntDiv               56      0.00%     68.45% # Class of committed instruction
system.cpu.commit.op_class_0::FloatAdd              2      0.00%     68.45% # Class of committed instruction
system.cpu.commit.op_class_0::FloatCmp              0      0.00%     68.45% # Class of committed instruction
system.cpu.commit.op_class_0::FloatCvt              0      0.00%     68.45% # Class of committed instruction
system.cpu.commit.op_class_0::FloatMult             0      0.00%     68.45% # Class of committed instruction
system.cpu.commit.op_class_0::FloatMultAcc            0      0.00%     68.45% # Class of committed instruction
system.cpu.commit.op_class_0::FloatDiv              0      0.00%     68.45% # Class of committed instruction
system.cpu.commit.op_class_0::FloatMisc             0      0.00%     68.45% # Class of committed instruction
system.cpu.commit.op_class_0::FloatSqrt             0      0.00%     68.45% # Class of committed instruction
system.cpu.commit.op_class_0::SimdAdd              16      0.00%     68.45% # Class of committed instruction
system.cpu.commit.op_class_0::SimdAddAcc            0      0.00%     68.45% # Class of committed instruction
system.cpu.commit.op_class_0::SimdAlu             740      0.06%     68.51% # Class of committed instruction
system.cpu.commit.op_class_0::SimdCmp               0      0.00%     68.51% # Class of committed instruction
system.cpu.commit.op_class_0::SimdCvt             278      0.02%     68.54% # Class of committed instruction
system.cpu.commit.op_class_0::SimdMisc            276      0.02%     68.56% # Class of committed instruction
system.cpu.commit.op_class_0::SimdMult              0      0.00%     68.56% # Class of committed instruction
system.cpu.commit.op_class_0::SimdMultAcc            0      0.00%     68.56% # Class of committed instruction
system.cpu.commit.op_class_0::SimdShift             0      0.00%     68.56% # Class of committed instruction
system.cpu.commit.op_class_0::SimdShiftAcc            0      0.00%     68.56% # Class of committed instruction
system.cpu.commit.op_class_0::SimdSqrt              0      0.00%     68.56% # Class of committed instruction
system.cpu.commit.op_class_0::SimdFloatAdd            0      0.00%     68.56% # Class of committed instruction
system.cpu.commit.op_class_0::SimdFloatAlu            0      0.00%     68.56% # Class of committed instruction
system.cpu.commit.op_class_0::SimdFloatCmp            0      0.00%     68.56% # Class of committed instruction
system.cpu.commit.op_class_0::SimdFloatCvt            0      0.00%     68.56% # Class of committed instruction
system.cpu.commit.op_class_0::SimdFloatDiv            0      0.00%     68.56% # Class of committed instruction
system.cpu.commit.op_class_0::SimdFloatMisc            0      0.00%     68.56% # Class of committed instruction
system.cpu.commit.op_class_0::SimdFloatMult            0      0.00%     68.56% # Class of committed instruction
system.cpu.commit.op_class_0::SimdFloatMultAcc            0      0.00%     68.56% # Class of committed instruction
system.cpu.commit.op_class_0::SimdFloatSqrt            0      0.00%     68.56% # Class of committed instruction
system.cpu.commit.op_class_0::SimdAes               0      0.00%     68.56% # Class of committed instruction
system.cpu.commit.op_class_0::SimdAesMix            0      0.00%     68.56% # Class of committed instruction
system.cpu.commit.op_class_0::SimdSha1Hash            0      0.00%     68.56% # Class of committed instruction
system.cpu.commit.op_class_0::SimdSha1Hash2            0      0.00%     68.56% # Class of committed instruction
system.cpu.commit.op_class_0::SimdSha256Hash            0      0.00%     68.56% # Class of committed instruction
system.cpu.commit.op_class_0::SimdSha256Hash2            0      0.00%     68.56% # Class of committed instruction
system.cpu.commit.op_class_0::SimdShaSigma2            0      0.00%     68.56% # Class of committed instruction
system.cpu.commit.op_class_0::SimdShaSigma3            0      0.00%     68.56% # Class of committed instruction
system.cpu.commit.op_class_0::MemRead          197613     16.98%     85.54% # Class of committed instruction
system.cpu.commit.op_class_0::MemWrite         167416     14.39%     99.92% # Class of committed instruction
system.cpu.commit.op_class_0::FloatMemRead          510      0.04%     99.97% # Class of committed instruction
system.cpu.commit.op_class_0::FloatMemWrite          364      0.03%    100.00% # Class of committed instruction
system.cpu.commit.op_class_0::IprAccess             0      0.00%    100.00% # Class of committed instruction
system.cpu.commit.op_class_0::InstPrefetch            0      0.00%    100.00% # Class of committed instruction
system.cpu.commit.op_class_0::total           1163804                       # Class of committed instruction
system.cpu.commit.bw_lim_events                447468                       # number cycles where commit BW limit reached
system.cpu.rob.rob_reads                      2805005                       # The number of ROB reads
system.cpu.rob.rob_writes                     3539990                       # The number of ROB writes
system.cpu.timesIdled                             937                       # Number of times that the entire CPU went into an idle state and unscheduled itself
system.cpu.idleCycles                           80796                       # Total number of cycles that the CPU has spent unscheduled due to idling
system.cpu.committedInsts                      612636                       # Number of Instructions Simulated
system.cpu.committedOps                       1163804                       # Number of Ops (including micro ops) Simulated
system.cpu.cpi                               2.683334                       # CPI: Cycles Per Instruction
system.cpu.cpi_total                         2.683334                       # CPI: Total CPI of All Threads
system.cpu.ipc                               0.372671                       # IPC: Instructions Per Cycle
system.cpu.ipc_total                         0.372671                       # IPC: Total IPC of All Threads
system.cpu.int_regfile_reads                  2281089                       # number of integer regfile reads
system.cpu.int_regfile_writes                  992402                       # number of integer regfile writes
system.cpu.fp_regfile_reads                      3213                       # number of floating regfile reads
system.cpu.fp_regfile_writes                     1777                       # number of floating regfile writes
system.cpu.cc_regfile_reads                    218769                       # number of cc regfile reads
system.cpu.cc_regfile_writes                   193528                       # number of cc regfile writes
system.cpu.misc_regfile_reads                  612772                       # number of misc regfile reads
system.cpu.dcache.tags.pwrStateResidencyTicks::UNDEFINED    821953000                       # Cumulative time (in ticks) in various power states
system.cpu.dcache.tags.tagsinuse            63.633272                       # Cycle average of tags in use
system.cpu.dcache.tags.total_refs              317335                       # Total number of references to valid blocks.
system.cpu.dcache.tags.sampled_refs              1031                       # Sample count of references to valid blocks.
system.cpu.dcache.tags.avg_refs            307.793404                       # Average number of references to valid blocks.
system.cpu.dcache.tags.warmup_cycle            190000                       # Cycle when the warmup percentage was hit.
system.cpu.dcache.tags.occ_blocks::.cpu.data    63.633272                       # Average occupied blocks per requestor
system.cpu.dcache.tags.occ_percent::.cpu.data     0.994270                       # Average percentage of cache occupancy
system.cpu.dcache.tags.occ_percent::total     0.994270                       # Average percentage of cache occupancy
system.cpu.dcache.tags.occ_task_id_blocks::1024           64                       # Occupied blocks per task id
system.cpu.dcache.tags.age_task_id_blocks_1024::0           49                       # Occupied blocks per task id
system.cpu.dcache.tags.age_task_id_blocks_1024::1           11                       # Occupied blocks per task id
system.cpu.dcache.tags.age_task_id_blocks_1024::2            4                       # Occupied blocks per task id
system.cpu.dcache.tags.occ_task_id_percent::1024            1                       # Percentage of cache occupancy per task id
system.cpu.dcache.tags.tag_accesses           2542247                       # Number of tag accesses
system.cpu.dcache.tags.data_accesses          2542247                       # Number of data accesses
system.cpu.dcache.pwrStateResidencyTicks::UNDEFINED    821953000                       # Cumulative time (in ticks) in various power states
system.cpu.dcache.ReadReq_hits::.cpu.data       148901                       # number of ReadReq hits
system.cpu.dcache.ReadReq_hits::total          148901                       # number of ReadReq hits
system.cpu.dcache.WriteReq_hits::.cpu.data       167402                       # number of WriteReq hits
system.cpu.dcache.WriteReq_hits::total         167402                       # number of WriteReq hits
system.cpu.dcache.demand_hits::.cpu.data       316303                       # number of demand (read+write) hits
system.cpu.dcache.demand_hits::total           316303                       # number of demand (read+write) hits
system.cpu.dcache.overall_hits::.cpu.data       316303                       # number of overall hits
system.cpu.dcache.overall_hits::total          316303                       # number of overall hits
system.cpu.dcache.ReadReq_misses::.cpu.data          944                       # number of ReadReq misses
system.cpu.dcache.ReadReq_misses::total           944                       # number of ReadReq misses
system.cpu.dcache.WriteReq_misses::.cpu.data          405                       # number of WriteReq misses
system.cpu.dcache.WriteReq_misses::total          405                       # number of WriteReq misses
system.cpu.dcache.demand_misses::.cpu.data         1349                       # number of demand (read+write) misses
system.cpu.dcache.demand_misses::total           1349                       # number of demand (read+write) misses
system.cpu.dcache.overall_misses::.cpu.data         1349                       # number of overall misses
system.cpu.dcache.overall_misses::total          1349                       # number of overall misses
system.cpu.dcache.ReadReq_miss_latency::.cpu.data     36745500                       # number of ReadReq miss cycles
system.cpu.dcache.ReadReq_miss_latency::total     36745500                       # number of ReadReq miss cycles
system.cpu.dcache.WriteReq_miss_latency::.cpu.data     36734000                       # number of WriteReq miss cycles
system.cpu.dcache.WriteReq_miss_latency::total     36734000                       # number of WriteReq miss cycles
system.cpu.dcache.demand_miss_latency::.cpu.data     73479500                       # number of demand (read+write) miss cycles
system.cpu.dcache.demand_miss_latency::total     73479500                       # number of demand (read+write) miss cycles
system.cpu.dcache.overall_miss_latency::.cpu.data     73479500                       # number of overall miss cycles
system.cpu.dcache.overall_miss_latency::total     73479500                       # number of overall miss cycles
system.cpu.dcache.ReadReq_accesses::.cpu.data       149845                       # number of ReadReq accesses(hits+misses)
system.cpu.dcache.ReadReq_accesses::total       149845                       # number of ReadReq accesses(hits+misses)
system.cpu.dcache.WriteReq_accesses::.cpu.data       167807                       # number of WriteReq accesses(hits+misses)
system.cpu.dcache.WriteReq_accesses::total       167807                       # number of WriteReq accesses(hits+misses)
system.cpu.dcache.demand_accesses::.cpu.data       317652                       # number of demand (read+write) accesses
system.cpu.dcache.demand_accesses::total       317652                       # number of demand (read+write) accesses
system.cpu.dcache.overall_accesses::.cpu.data       317652                       # number of overall (read+write) accesses
system.cpu.dcache.overall_accesses::total       317652                       # number of overall (read+write) accesses
system.cpu.dcache.ReadReq_miss_rate::.cpu.data     0.006300                       # miss rate for ReadReq accesses
system.cpu.dcache.ReadReq_miss_rate::total     0.006300                       # miss rate for ReadReq accesses
system.cpu.dcache.WriteReq_miss_rate::.cpu.data     0.002413                       # miss rate for WriteReq accesses
system.cpu.dcache.WriteReq_miss_rate::total     0.002413                       # miss rate for WriteReq accesses
system.cpu.dcache.demand_miss_rate::.cpu.data     0.004247                       # miss rate for demand accesses
system.cpu.dcache.demand_miss_rate::total     0.004247                       # miss rate for demand accesses
system.cpu.dcache.overall_miss_rate::.cpu.data     0.004247                       # miss rate for overall accesses
system.cpu.dcache.overall_miss_rate::total     0.004247                       # miss rate for overall accesses
system.cpu.dcache.ReadReq_avg_miss_latency::.cpu.data 38925.317797                       # average ReadReq miss latency
system.cpu.dcache.ReadReq_avg_miss_latency::total 38925.317797                       # average ReadReq miss latency
system.cpu.dcache.WriteReq_avg_miss_latency::.cpu.data 90701.234568                       # average WriteReq miss latency
system.cpu.dcache.WriteReq_avg_miss_latency::total 90701.234568                       # average WriteReq miss latency
system.cpu.dcache.demand_avg_miss_latency::.cpu.data 54469.607116                       # average overall miss latency
[...]
system.l3bus.snoop_fanout::overflows                0      0.00%    100.00% # Request fanout histogram
system.l3bus.snoop_fanout::min_value                0                       # Request fanout histogram
system.l3bus.snoop_fanout::max_value                0                       # Request fanout histogram
system.l3bus.snoop_fanout::total                 2327                       # Request fanout histogram
system.l3bus.reqLayer0.occupancy              1165500                       # Layer occupancy (ticks)
system.l3bus.reqLayer0.utilization                0.1                       # Layer utilization (%)
system.l3bus.respLayer0.occupancy             5817500                       # Layer occupancy (ticks)
system.l3bus.respLayer0.utilization               0.7                       # Layer utilization (%)
system.l3cache.tags.pwrStateResidencyTicks::UNDEFINED    821953000                       # Cumulative time (in ticks) in various power states
system.l3cache.tags.tagsinuse             1883.895029                       # Cycle average of tags in use
system.l3cache.tags.total_refs                   2327                       # Total number of references to valid blocks.
system.l3cache.tags.sampled_refs                 2327                       # Sample count of references to valid blocks.
system.l3cache.tags.avg_refs                        1                       # Average number of references to valid blocks.
system.l3cache.tags.warmup_cycle                76000                       # Cycle when the warmup percentage was hit.
system.l3cache.tags.occ_blocks::.cpu.inst  1424.091337                       # Average occupied blocks per requestor
system.l3cache.tags.occ_blocks::.cpu.data   459.803691                       # Average occupied blocks per requestor
system.l3cache.tags.occ_percent::.cpu.inst     0.043460                       # Average percentage of cache occupancy
system.l3cache.tags.occ_percent::.cpu.data     0.014032                       # Average percentage of cache occupancy
system.l3cache.tags.occ_percent::total       0.057492                       # Average percentage of cache occupancy
system.l3cache.tags.occ_task_id_blocks::1024         2327                       # Occupied blocks per task id
system.l3cache.tags.age_task_id_blocks_1024::0           93                       # Occupied blocks per task id
system.l3cache.tags.age_task_id_blocks_1024::1          120                       # Occupied blocks per task id
system.l3cache.tags.age_task_id_blocks_1024::2         2114                       # Occupied blocks per task id
system.l3cache.tags.occ_task_id_percent::1024     0.071014                       # Percentage of cache occupancy per task id
system.l3cache.tags.tag_accesses                39559                       # Number of tag accesses
system.l3cache.tags.data_accesses               39559                       # Number of data accesses
system.l3cache.pwrStateResidencyTicks::UNDEFINED    821953000                       # Cumulative time (in ticks) in various power states
system.l3cache.ReadExReq_misses::.cpu.data          318                       # number of ReadExReq misses
system.l3cache.ReadExReq_misses::total            318                       # number of ReadExReq misses
system.l3cache.ReadSharedReq_misses::.cpu.inst         1797                       # number of ReadSharedReq misses
system.l3cache.ReadSharedReq_misses::.cpu.data          212                       # number of ReadSharedReq misses
system.l3cache.ReadSharedReq_misses::total         2009                       # number of ReadSharedReq misses
system.l3cache.demand_misses::.cpu.inst          1797                       # number of demand (read+write) misses
system.l3cache.demand_misses::.cpu.data           530                       # number of demand (read+write) misses
system.l3cache.demand_misses::total              2327                       # number of demand (read+write) misses
system.l3cache.overall_misses::.cpu.inst         1797                       # number of overall misses
system.l3cache.overall_misses::.cpu.data          530                       # number of overall misses
system.l3cache.overall_misses::total             2327                       # number of overall misses
system.l3cache.ReadExReq_miss_latency::.cpu.data     31337500                       # number of ReadExReq miss cycles
system.l3cache.ReadExReq_miss_latency::total     31337500                       # number of ReadExReq miss cycles
system.l3cache.ReadSharedReq_miss_latency::.cpu.inst    129720500                       # number of ReadSharedReq miss cycles
system.l3cache.ReadSharedReq_miss_latency::.cpu.data     15636500                       # number of ReadSharedReq miss cycles
system.l3cache.ReadSharedReq_miss_latency::total    145357000                       # number of ReadSharedReq miss cycles
system.l3cache.demand_miss_latency::.cpu.inst    129720500                       # number of demand (read+write) miss cycles
system.l3cache.demand_miss_latency::.cpu.data     46974000                       # number of demand (read+write) miss cycles
system.l3cache.demand_miss_latency::total    176694500                       # number of demand (read+write) miss cycles
system.l3cache.overall_miss_latency::.cpu.inst    129720500                       # number of overall miss cycles
system.l3cache.overall_miss_latency::.cpu.data     46974000                       # number of overall miss cycles
system.l3cache.overall_miss_latency::total    176694500                       # number of overall miss cycles
system.l3cache.ReadExReq_accesses::.cpu.data          318                       # number of ReadExReq accesses(hits+misses)
system.l3cache.ReadExReq_accesses::total          318                       # number of ReadExReq accesses(hits+misses)
system.l3cache.ReadSharedReq_accesses::.cpu.inst         1797                       # number of ReadSharedReq accesses(hits+misses)
system.l3cache.ReadSharedReq_accesses::.cpu.data          212                       # number of ReadSharedReq accesses(hits+misses)
system.l3cache.ReadSharedReq_accesses::total         2009                       # number of ReadSharedReq accesses(hits+misses)
system.l3cache.demand_accesses::.cpu.inst         1797                       # number of demand (read+write) accesses
system.l3cache.demand_accesses::.cpu.data          530                       # number of demand (read+write) accesses
system.l3cache.demand_accesses::total            2327                       # number of demand (read+write) accesses
system.l3cache.overall_accesses::.cpu.inst         1797                       # number of overall (read+write) accesses
system.l3cache.overall_accesses::.cpu.data          530                       # number of overall (read+write) accesses
system.l3cache.overall_accesses::total           2327                       # number of overall (read+write) accesses
system.l3cache.ReadExReq_miss_rate::.cpu.data            1                       # miss rate for ReadExReq accesses
system.l3cache.ReadExReq_miss_rate::total            1                       # miss rate for ReadExReq accesses
system.l3cache.ReadSharedReq_miss_rate::.cpu.inst            1                       # miss rate for ReadSharedReq accesses
system.l3cache.ReadSharedReq_miss_rate::.cpu.data            1                       # miss rate for ReadSharedReq accesses
system.l3cache.ReadSharedReq_miss_rate::total            1                       # miss rate for ReadSharedReq accesses
system.l3cache.demand_miss_rate::.cpu.inst            1                       # miss rate for demand accesses
system.l3cache.demand_miss_rate::.cpu.data            1                       # miss rate for demand accesses
system.l3cache.demand_miss_rate::total              1                       # miss rate for demand accesses
system.l3cache.overall_miss_rate::.cpu.inst            1                       # miss rate for overall accesses
system.l3cache.overall_miss_rate::.cpu.data            1                       # miss rate for overall accesses
system.l3cache.overall_miss_rate::total             1                       # miss rate for overall accesses
system.l3cache.ReadExReq_avg_miss_latency::.cpu.data 98545.597484                       # average ReadExReq miss latency
system.l3cache.ReadExReq_avg_miss_latency::total 98545.597484                       # average ReadExReq miss latency
system.l3cache.ReadSharedReq_avg_miss_latency::.cpu.inst 72187.256539                       # average ReadSharedReq miss latency
system.l3cache.ReadSharedReq_avg_miss_latency::.cpu.data 73757.075472                       # average ReadSharedReq miss latency
system.l3cache.ReadSharedReq_avg_miss_latency::total 72352.911896                       # average ReadSharedReq miss latency
system.l3cache.demand_avg_miss_latency::.cpu.inst 72187.256539                       # average overall miss latency
system.l3cache.demand_avg_miss_latency::.cpu.data 88630.188679                       # average overall miss latency
system.l3cache.demand_avg_miss_latency::total 75932.316287                       # average overall miss latency
system.l3cache.overall_avg_miss_latency::.cpu.inst 72187.256539                       # average overall miss latency
system.l3cache.overall_avg_miss_latency::.cpu.data 88630.188679                       # average overall miss latency
system.l3cache.overall_avg_miss_latency::total 75932.316287                       # average overall miss latency
system.l3cache.blocked_cycles::no_mshrs             0                       # number of cycles access was blocked
system.l3cache.blocked_cycles::no_targets            0                       # number of cycles access was blocked
system.l3cache.blocked::no_mshrs                    0                       # number of cycles access was blocked
system.l3cache.blocked::no_targets                  0                       # number of cycles access was blocked
system.l3cache.avg_blocked_cycles::no_mshrs          nan                       # average number of cycles each access was blocked
system.l3cache.avg_blocked_cycles::no_targets          nan                       # average number of cycles each access was blocked
system.l3cache.ReadExReq_mshr_misses::.cpu.data          318                       # number of ReadExReq MSHR misses
system.l3cache.ReadExReq_mshr_misses::total          318                       # number of ReadExReq MSHR misses
system.l3cache.ReadSharedReq_mshr_misses::.cpu.inst         1797                       # number of ReadSharedReq MSHR misses
system.l3cache.ReadSharedReq_mshr_misses::.cpu.data          212                       # number of ReadSharedReq MSHR misses
system.l3cache.ReadSharedReq_mshr_misses::total         2009                       # number of ReadSharedReq MSHR misses
system.l3cache.demand_mshr_misses::.cpu.inst         1797                       # number of demand (read+write) MSHR misses
system.l3cache.demand_mshr_misses::.cpu.data          530                       # number of demand (read+write) MSHR misses
system.l3cache.demand_mshr_misses::total         2327                       # number of demand (read+write) MSHR misses
system.l3cache.overall_mshr_misses::.cpu.inst         1797                       # number of overall MSHR misses
system.l3cache.overall_mshr_misses::.cpu.data          530                       # number of overall MSHR misses
system.l3cache.overall_mshr_misses::total         2327                       # number of overall MSHR misses
system.l3cache.ReadExReq_mshr_miss_latency::.cpu.data     30701500                       # number of ReadExReq MSHR miss cycles
system.l3cache.ReadExReq_mshr_miss_latency::total     30701500                       # number of ReadExReq MSHR miss cycles
system.l3cache.ReadSharedReq_mshr_miss_latency::.cpu.inst    126126500                       # number of ReadSharedReq MSHR miss cycles
system.l3cache.ReadSharedReq_mshr_miss_latency::.cpu.data     15212500                       # number of ReadSharedReq MSHR miss cycles
system.l3cache.ReadSharedReq_mshr_miss_latency::total    141339000                       # number of ReadSharedReq MSHR miss cycles
system.l3cache.demand_mshr_miss_latency::.cpu.inst    126126500                       # number of demand (read+write) MSHR miss cycles
system.l3cache.demand_mshr_miss_latency::.cpu.data     45914000                       # number of demand (read+write) MSHR miss cycles
system.l3cache.demand_mshr_miss_latency::total    172040500                       # number of demand (read+write) MSHR miss cycles
system.l3cache.overall_mshr_miss_latency::.cpu.inst    126126500                       # number of overall MSHR miss cycles
system.l3cache.overall_mshr_miss_latency::.cpu.data     45914000                       # number of overall MSHR miss cycles
system.l3cache.overall_mshr_miss_latency::total    172040500                       # number of overall MSHR miss cycles
system.l3cache.ReadExReq_mshr_miss_rate::.cpu.data            1                       # mshr miss rate for ReadExReq accesses
system.l3cache.ReadExReq_mshr_miss_rate::total            1                       # mshr miss rate for ReadExReq accesses
system.l3cache.ReadSharedReq_mshr_miss_rate::.cpu.inst            1                       # mshr miss rate for ReadSharedReq accesses
system.l3cache.ReadSharedReq_mshr_miss_rate::.cpu.data            1                       # mshr miss rate for ReadSharedReq accesses
system.l3cache.ReadSharedReq_mshr_miss_rate::total            1                       # mshr miss rate for ReadSharedReq accesses
system.l3cache.demand_mshr_miss_rate::.cpu.inst            1                       # mshr miss rate for demand accesses
system.l3cache.demand_mshr_miss_rate::.cpu.data            1                       # mshr miss rate for demand accesses
system.l3cache.demand_mshr_miss_rate::total            1                       # mshr miss rate for demand accesses
system.l3cache.overall_mshr_miss_rate::.cpu.inst            1                       # mshr miss rate for overall accesses
system.l3cache.overall_mshr_miss_rate::.cpu.data            1                       # mshr miss rate for overall accesses
system.l3cache.overall_mshr_miss_rate::total            1                       # mshr miss rate for overall accesses
system.l3cache.ReadExReq_avg_mshr_miss_latency::.cpu.data 96545.597484                       # average ReadExReq mshr miss latency
system.l3cache.ReadExReq_avg_mshr_miss_latency::total 96545.597484                       # average ReadExReq mshr miss latency
system.l3cache.ReadSharedReq_avg_mshr_miss_latency::.cpu.inst 70187.256539                       # average ReadSharedReq mshr miss latency
system.l3cache.ReadSharedReq_avg_mshr_miss_latency::.cpu.data 71757.075472                       # average ReadSharedReq mshr miss latency
system.l3cache.ReadSharedReq_avg_mshr_miss_latency::total 70352.911896                       # average ReadSharedReq mshr miss latency
system.l3cache.demand_avg_mshr_miss_latency::.cpu.inst 70187.256539                       # average overall mshr miss latency
system.l3cache.demand_avg_mshr_miss_latency::.cpu.data 86630.188679                       # average overall mshr miss latency
system.l3cache.demand_avg_mshr_miss_latency::total 73932.316287                       # average overall mshr miss latency
system.l3cache.overall_avg_mshr_miss_latency::.cpu.inst 70187.256539                       # average overall mshr miss latency
system.l3cache.overall_avg_mshr_miss_latency::.cpu.data 86630.188679                       # average overall mshr miss latency
system.l3cache.overall_avg_mshr_miss_latency::total 73932.316287                       # average overall mshr miss latency
system.l3cache.replacements                         0                       # number of replacements
system.membus.snoop_filter.tot_requests          2327                       # Total number of requests made to the snoop filter.
system.membus.snoop_filter.hit_single_requests            0                       # Number of requests hitting in the snoop filter with a single holder of the requested data.
system.membus.snoop_filter.hit_multi_requests            0                       # Number of requests hitting in the snoop filter with multiple (>1) holders of the requested data.
system.membus.snoop_filter.tot_snoops               0                       # Total number of snoops made to the snoop filter.
system.membus.snoop_filter.hit_single_snoops            0                       # Number of snoops hitting in the snoop filter with a single holder of the requested data.
system.membus.snoop_filter.hit_multi_snoops            0                       # Number of snoops hitting in the snoop filter with multiple (>1) holders of the requested data.
system.membus.pwrStateResidencyTicks::UNDEFINED    821953000                       # Cumulative time (in ticks) in various power states
system.membus.trans_dist::ReadResp               2009                       # Transaction distribution
system.membus.trans_dist::ReadExReq               318                       # Transaction distribution
system.membus.trans_dist::ReadExResp              318                       # Transaction distribution
system.membus.trans_dist::ReadSharedReq          2009                       # Transaction distribution
system.membus.pkt_count_system.l3cache.mem_side::system.mem_ctrl.port         4654                       # Packet count per connected master and slave (bytes)
system.membus.pkt_count_system.l3cache.mem_side::total         4654                       # Packet count per connected master and slave (bytes)
system.membus.pkt_count::total                   4654                       # Packet count per connected master and slave (bytes)
system.membus.pkt_size_system.l3cache.mem_side::system.mem_ctrl.port       148928                       # Cumulative packet size per connected master and slave (bytes)
system.membus.pkt_size_system.l3cache.mem_side::total       148928                       # Cumulative packet size per connected master and slave (bytes)
system.membus.pkt_size::total                  148928                       # Cumulative packet size per connected master and slave (bytes)
system.membus.snoops                                0                       # Total snoops (count)
system.membus.snoopTraffic                          0                       # Total snoop traffic (bytes)
system.membus.snoop_fanout::samples              2327                       # Request fanout histogram
system.membus.snoop_fanout::mean                    0                       # Request fanout histogram
system.membus.snoop_fanout::stdev                   0                       # Request fanout histogram
system.membus.snoop_fanout::underflows              0      0.00%      0.00% # Request fanout histogram
system.membus.snoop_fanout::0                    2327    100.00%    100.00% # Request fanout histogram
system.membus.snoop_fanout::1                       0      0.00%    100.00% # Request fanout histogram
system.membus.snoop_fanout::overflows               0      0.00%    100.00% # Request fanout histogram
system.membus.snoop_fanout::min_value               0                       # Request fanout histogram
system.membus.snoop_fanout::max_value               0                       # Request fanout histogram
system.membus.snoop_fanout::total                2327                       # Request fanout histogram
system.membus.reqLayer0.occupancy             1163500                       # Layer occupancy (ticks)
system.membus.reqLayer0.utilization               0.1                       # Layer utilization (%)
system.membus.respLayer0.occupancy            6305750                       # Layer occupancy (ticks)
system.membus.respLayer0.utilization              0.8                       # Layer utilization (%)

---------- End Simulation Statistics   ----------
